15   
Generated by ForceBalance from scan.xyz: Frame 1 of 24
C        0.4252884475   -0.6585974908    0.8569512764
C        1.5897738797   -0.3902385888    2.9731058525
C       -0.3728394343   -1.6054387360    1.4991237958
C        1.4145185325   -0.0620710862    1.6404141183
C        0.7128732759   -1.3569671364    3.5160196154
N       -0.2437097103   -1.9545941762    2.7855472301
N        0.7733815596   -1.6975348966    4.8543521754
N        2.3222839298    0.9332989707    1.0279580255
O        3.3479397549    1.2295313716    1.6476238956
O        2.0017325226    1.3922870289   -0.0710466902
H        0.2925499375   -0.3973693441   -0.1849044082
H        2.3661457656    0.0825014513    3.5633638221
H       -1.1582685761   -2.1173160244    0.9464795209
H        1.6624621722   -1.5790026565    5.3226477214
H        0.2822906983   -2.5531672469    5.0860732485
15   
Generated by ForceBalance from scan.xyz: Frame 2 of 24
C        0.1336961245   -0.2130516027    1.1056366529
C        1.7793084014   -0.6556766878    2.8388277603
C       -0.7060930898   -1.1018063163    1.7773083293
C        1.3898040245   -0.0108768258    1.6787621467
C        0.8337422823   -1.5164871727    3.4411774032
N       -0.3804808824   -1.7384937626    2.9094385197
N        1.1063400667   -2.1407257565    4.6440029738
N        2.3560924663    0.8788481868    1.0027451122
O        3.5566352784    0.6324374247    1.1507896647
O        1.8955535703    1.7919550755    0.3130977852
H       -0.1645589760    0.2941464222    0.1967733244
H        2.7665139823   -0.4979427985    3.2584278514
H       -1.6958318780   -1.3186342690    1.3800472707
H        2.0786222000   -2.3081603544    4.8688313789
H        0.4824452998   -2.9091938283    4.8613764603
15   
Generated by ForceBalance from scan.xyz: Frame 3 of 24
C        0.1327312391   -0.2299000851    1.0896940263
C        1.7676070703   -0.6470531294    2.8400647697
C       -0.7005726571   -1.1299898653    1.7545492468
C        1.3781012487   -0.0076351880    1.6776417361
C        0.8261882753   -1.5166126247    3.4363319040
N       -0.3790210207   -1.7575439229    2.8925559319
N        1.0931601727   -2.1326678989    4.6445807768
N        2.3410257017    0.8818871286    1.0005215951
O        3.5114613800    0.4976273085    0.9269833702
O        1.8982211939    1.9278868829    0.5198279135
H       -0.1649314796    0.2719576549    0.1771179073
H        2.7508115544   -0.4813877501    3.2673363398
H       -1.6816789015   -1.3641704472    1.3458589704
H        2.0648073041   -2.2895293658    4.8796758772
H        0.4755550712   -2.9075254761    4.8574184598
15   
Generated by ForceBalance from scan.xyz: Frame 4 of 24
C        0.1460087239   -0.2550445917    1.0761145983
C        1.7628580348   -0.6425869708    2.8512584402
C       -0.6887763863   -1.1549000523    1.7396552161
C        1.3811393862   -0.0182123144    1.6788860059
C        0.8208915205   -1.5153223959    3.4423355547
N       -0.3759797611   -1.7699794607    2.8866505124
N        1.0782828482   -2.1206971320    4.6580079500
N        2.3447999825    0.8717754716    1.0033841093
O        3.4370834782    0.3883869509    0.6957482510
O        1.9693276122    2.0197572807    0.7559807011
H       -0.1462547224    0.2349701141    0.1548583202
H        2.7384589915   -0.4655558326    3.2923478589
H       -1.6635539754   -1.3992249627    1.3216826989
H        2.0481182998   -2.2701381985    4.9050931058
H        0.4632238131   -2.8981569265    4.8688314106
15   
Generated by ForceBalance from scan.xyz: Frame 5 of 24
C        0.1536944219   -0.2855039087    1.0618973904
C        1.7506474342   -0.6357798707    2.8609579636
C       -0.6829001350   -1.1815490991    1.7284893221
C        1.3805535237   -0.0332393272    1.6742338521
C        0.8120478351   -1.5154267125    3.4479830163
N       -0.3773085245   -1.7844523247    2.8836198734
N        1.0635845707   -2.1102865112    4.6700454144
N        2.3380358781    0.8717666872    1.0073836608
O        3.3100795430    0.3510143332    0.4567383468
O        2.0754089631    2.0755735478    1.0246552043
H       -0.1330635040    0.1879290305    0.1299247647
H        2.7143285786   -0.4378497812    3.3197632228
H       -1.6536129886   -1.4330940052    1.3052677289
H        2.0322760634   -2.2502657924    4.9268477786
H        0.4530285779   -2.8914796811    4.8802298779
15   
Generated by ForceBalance from scan.xyz: Frame 6 of 24
C        0.1687438665   -0.3166589665    1.0456767236
C        1.7461843290   -0.6208804848    2.8700868701
C       -0.6726567606   -1.2004871110    1.7226752121
C        1.3898289435   -0.0511961708    1.6633361080
C        0.8109332507   -1.5041804260    3.4571518915
N       -0.3730117555   -1.7863565258    2.8879945743
N        1.0574437732   -2.0835454723    4.6874972803
N        2.3393150523    0.8722995579    1.0088852640
O        3.1522701561    0.3758290673    0.2272135699
O        2.2427484997    2.0674015785    1.2913293919
H       -0.1091729723    0.1322992296    0.0988699596
H        2.6952634478   -0.3942221486    3.3459611462
H       -1.6423607858   -1.4560346007    1.2994480784
H        2.0248085133   -2.2147935340    4.9533778029
H        0.4485581064   -2.8641870175    4.9041811857
15   
Generated by ForceBalance from scan.xyz: Frame 7 of 24
C        0.1733445525   -0.3429135065    1.0155326902
C        1.7261620652   -0.6111191112    2.8674736142
C       -0.6731547373   -1.2212634678    1.6931146388
C        1.3865950211   -0.0663629022    1.6441118167
C        0.7953521579   -1.5054260504    3.4446563557
N       -0.3806513568   -1.7988560940    2.8644366144
N        1.0341111528   -2.0790870502    4.6792482787
N        2.3253335345    0.8786534655    1.0066805750
O        2.9516383958    0.4677692477    0.0276484611
O        2.4266125671    1.9974153114    1.5127799967
H       -0.0912688664    0.0896314393    0.0574499264
H        2.6576084984   -0.3552761396    3.3626670419
H       -1.6403001918   -1.4794466348    1.2657170505
H        1.9995190545   -2.2043399017    4.9546961945
H        0.4265390039   -2.8611827950    4.8942870680
15   
Generated by ForceBalance from scan.xyz: Frame 8 of 24
C        0.1909827628   -0.3637399976    0.9971715713
C        1.7232812044   -0.5957567378    2.8714367054
C       -0.6560127998   -1.2411050229    1.6751691089
C        1.3961320131   -0.0714183312    1.6351897496
C        0.7977602625   -1.4987510065    3.4432844431
N       -0.3695489852   -1.8076767919    2.8535072890
N        1.0301673659   -2.0626554005    4.6834277080
N        2.3258555782    0.8863131491    1.0061117521
O        2.7475603650    0.5999702938   -0.1170636416
O        2.6418287895    1.8812059361    1.6620929918
H       -0.0631695571    0.0553507447    0.0306367553
H        2.6415954701   -0.3159426460    3.3772851173
H       -1.6184027893   -1.5084176944    1.2428511430
H        1.9938146217   -2.1711226041    4.9716885495
H        0.4309799419   -2.8513773781    4.8975345162
15   
Generated by ForceBalance from scan.xyz: Frame 9 of 24
C        0.1947311457   -0.3890931587    0.9863794509
C        1.7072346686   -0.5869273349    2.8798050734
C       -0.6525640475   -1.2655204454    1.6647696061
C        1.3910475587   -0.0785504147    1.6334484768
C        0.7839770008   -1.4925875761    3.4509383693
N       -0.3742522204   -1.8176803698    2.8521428220
N        1.0085100299   -2.0418711907    4.6990043029
N        2.3190755508    0.8801202542    1.0035999182
O        2.5327354266    0.7413672296   -0.2036833653
O        2.8441111693    1.7258185447    1.7321885498
H       -0.0496564245    0.0179969764    0.0127129482
H        2.6173190360   -0.2914851275    3.3906072435
H       -1.6084454721   -1.5447312860    1.2257896775
H        1.9699954918   -2.1364948223    4.9990590921
H        0.4151287994   -2.8343067525    4.9153948326
15   
Generated by ForceBalance from scan.xyz: Frame 10 of 24
C        0.2011300598   -0.4025345826    0.9885796418
C        1.6926589644   -0.5774295073    2.9006760048
C       -0.6426099477   -1.2894436432    1.6574369221
C        1.3846668589   -0.0723350086    1.6503461726
C        0.7714586415   -1.4892197190    3.4651861108
N       -0.3737553179   -1.8323360750    2.8515887843
N        0.9851639366   -2.0274188747    4.7200319077
N        2.3157192351    0.8893453545    1.0250301844
O        2.3391218763    0.9307201748   -0.2078657845
O        3.0275622670    1.5643676421    1.7737824547
H       -0.0357811601    0.0006387960    0.0120255685
H        2.5964483798   -0.2739211238    3.4168766587
H       -1.5872082549   -1.5853678144    1.2052133072
H        1.9433068203   -2.1053235506    5.0352423421
H        0.4001979169   -2.8268549243    4.9334193526
15   
Generated by ForceBalance from scan.xyz: Frame 11 of 24
C        0.2045352609   -0.4200849495    0.9757465651
C        1.6777821797   -0.5667805716    2.9021966373
C       -0.6362555797   -1.3120859258    1.6414804787
C        1.3767133974   -0.0683326419    1.6470322916
C        0.7562440461   -1.4764746074    3.4695817618
N       -0.3774833805   -1.8381872909    2.8455348195
N        0.9586303509   -1.9946354070    4.7349446183
N        2.3142113029    0.8880176547    1.0170576566
O        2.1660978886    1.1170190544   -0.1859834583
O        3.1918805786    1.3833444614    1.7295728967
H       -0.0274439977   -0.0251903810   -0.0048460548
H        2.5791367193   -0.2590689352    3.4193422954
H       -1.5694451325   -1.6266551935    1.1783005503
H        1.9135400160   -2.0593494043    5.0628625451
H        0.3789012679   -2.7969716694    4.9518341725
15   
Generated by ForceBalance from scan.xyz: Frame 12 of 24
C        0.2122902228   -0.4364449909    0.9645576096
C        1.6702339196   -0.5605278056    2.9046194794
C       -0.6228561301   -1.3374739174    1.6252500433
C        1.3726415391   -0.0663770418    1.6466631536
C        0.7479909381   -1.4696878383    3.4715671599
N       -0.3737891482   -1.8499220978    2.8371623926
N        0.9391875148   -1.9723522557    4.7449406395
N        2.3157763492    0.8839629947    1.0134857648
O        2.0255702636    1.3108067833   -0.1067457273
O        3.3324221738    1.1882267943    1.6438227590
H       -0.0165173022   -0.0459762101   -0.0183542502
H        2.5704838658   -0.2514112942    3.4226002953
H       -1.5434962556   -1.6714144976    1.1506990696
H        1.8906686527   -2.0219379133    5.0854606732
H        0.3676365660   -2.7806927931    4.9614720361
15   
Generated by ForceBalance from scan.xyz: Frame 13 of 24
C        0.2249647476   -0.4517618234    0.9569188126
C        1.6664033290   -0.5510175900    2.9102559500
C       -0.6052459080   -1.3608013625    1.6128711010
C        1.3727797866   -0.0627679594    1.6493745031
C        0.7440733243   -1.4597255415    3.4777079573
N       -0.3654536685   -1.8583345198    2.8328916273
N        0.9242138642   -1.9462898175    4.7589435361
N        2.3194652791    0.8799439906    1.0129875711
O        1.9223402084    1.4999698546    0.0234087479
O        3.4396374717    0.9948611422    1.5185996155
H       -0.0001538318   -0.0664775907   -0.0290869017
H        2.5648920630   -0.2393813970    3.4300529914
H       -1.5131224642   -1.7141566795    1.1278622562
H        1.8720687268   -1.9842394761    5.1109937651
H        0.3575704129   -2.7577121706    4.9768451836
15   
Generated by ForceBalance from scan.xyz: Frame 14 of 24
C        0.2411033602   -0.4637089520    0.9510212566
C        1.6668085198   -0.5346281475    2.9190377006
C       -0.5838283526   -1.3788845894    1.6051613096
C        1.3749317590   -0.0553739968    1.6548108072
C        0.7438907900   -1.4424019958    3.4868080078
N       -0.3535123080   -1.8601467447    2.8333297859
N        0.9117562333   -1.9114068771    4.7761846043
N        2.3224940078    0.8800045443    1.0150845408
O        1.8601278742    1.6794081660    0.1971803462
O        3.5059359625    0.8181761069    1.3603256641
H        0.0198775074   -0.0859089861   -0.0392720773
H        2.5627720370   -0.2184768629    3.4412991933
H       -1.4792894163   -1.7514959114    1.1115568629
H        1.8557549619   -1.9386589634    5.1395636715
H        0.3492054475   -2.7252038485    4.9960408147
15   
Generated by ForceBalance from scan.xyz: Frame 15 of 24
C        0.2498970648   -0.4688566535    0.9358687495
C        1.6607046219   -0.5085541627    2.9150129708
C       -0.5660519849   -1.3942986158    1.5871401869
C        1.3694847813   -0.0380461435    1.6479711733
C        0.7443497770   -1.4234762820    3.4820116374
N       -0.3401438999   -1.8626396128    2.8208164750
N        0.9053386974   -1.8800362432    4.7766850999
N        2.3118434317    0.8981571570    1.0060528865
O        1.8247855182    1.8542768012    0.3974525890
O        3.5173755627    0.6799443428    1.1527084340
H        0.0293159454   -0.0989197816   -0.0580796840
H        2.5507900145   -0.1823361270    3.4421199203
H       -1.4494285667   -1.7860078193    1.0865103440
H        1.8458230663   -1.8923875572    5.1499112303
H        0.3515637460   -2.6998957098    4.9964641775
15   
Generated by ForceBalance from scan.xyz: Frame 16 of 24
C        0.2645905320   -0.4905898524    0.9268141447
C        1.6511823569   -0.5007545117    2.9243524368
C       -0.5510141663   -1.4181742883    1.5759848288
C        1.3698935547   -0.0442032767    1.6505403594
C        0.7372285310   -1.4211305198    3.4864634713
N       -0.3353136781   -1.8749776815    2.8155026277
N        0.8875382415   -1.8687673449    4.7854513562
N        2.3128595520    0.8946040933    1.0130608463
O        1.8570541020    1.9777817599    0.6395104945
O        3.4920610050    0.5425205103    0.9335948071
H        0.0507696012   -0.1320343923   -0.0732451190
H        2.5309903014   -0.1628698960    3.4622369650
H       -1.4251798668   -1.8210631920    1.0679265103
H        1.8231097999   -1.8678328607    5.1709676858
H        0.3404277081   -2.6936775784    5.0029711760
15   
Generated by ForceBalance from scan.xyz: Frame 17 of 24
C        0.2899019517   -0.5094837944    0.9201996651
C        1.6485324608   -0.4703858586    2.9358042240
C       -0.5297809920   -1.4277049830    1.5777515074
C        1.3842217311   -0.0449645877    1.6482467528
C        0.7381569402   -1.3932858134    3.5001643453
N       -0.3246263083   -1.8643665026    2.8260591479
N        0.8796040103   -1.8221984513    4.8065605654
N        2.3218267950    0.9006809132    1.0100795477
O        1.9411006708    2.0658570696    0.8836704127
O        3.4210885584    0.4577514032    0.6716780795
H        0.0864760892   -0.1751258999   -0.0906551164
H        2.5114470593   -0.1080590441    3.4857173423
H       -1.3988169196   -1.8399636958    1.0683288118
H        1.8123245694   -1.8139427715    5.1988262354
H        0.3340537923   -2.6466990912    5.0296910108
15   
Generated by ForceBalance from scan.xyz: Frame 18 of 24
C        0.3119266688   -0.5358920656    0.9057010196
C        1.6370412235   -0.4632566009    2.9425054358
C       -0.5149406888   -1.4478832482    1.5629496965
C        1.3956910604   -0.0618589603    1.6431243300
C        0.7307998242   -1.3952554155    3.4989441637
N       -0.3216258906   -1.8762892996    2.8160086426
N        0.8618220173   -1.8177004891    4.8083831674
N        2.3212241100    0.9050634407    1.0177403849
O        2.0565967790    2.1005930734    1.1520973351
O        3.2855379754    0.4405716190    0.4072093111
H        0.1241296310   -0.2188182667   -0.1138299574
H        2.4778176016   -0.0751258670    3.5090952867
H       -1.3803732913   -1.8619355852    1.0488016831
H        1.7899212208   -1.8009164816    5.2109628041
H        0.3181706558   -2.6435974737    5.0307059141
15   
Generated by ForceBalance from scan.xyz: Frame 19 of 24
C        0.3359114682   -0.5639729701    0.8980458340
C        1.6319746130   -0.4511835388    2.9518436212
C       -0.4968164400   -1.4675228059    1.5592312808
C        1.4111686410   -0.0775125029    1.6403549880
C        0.7319132020   -1.3907362069    3.5057532006
N       -0.3115446718   -1.8839029978    2.8176623895
N        0.8551549533   -1.8031346276    4.8190844492
N        2.3168240985    0.9104845945    1.0204612966
O        2.2068543815    2.0812317728    1.3885940454
O        3.0933248761    0.4926592678    0.1591567403
H        0.1635970063   -0.2658076603   -0.1297446117
H        2.4512863073   -0.0342740270    3.5290816194
H       -1.3600578159   -1.8849789787    1.0442153590
H        1.7793892702   -1.7774069732    5.2297844923
H        0.3131794583   -2.6292971003    5.0443233951
15   
Generated by ForceBalance from scan.xyz: Frame 20 of 24
C        0.3699273997   -0.5877314669    0.8749303455
C        1.6406128454   -0.4424423338    2.9438765546
C       -0.4677185896   -1.4848038693    1.5385598862
C        1.4363156348   -0.0897032328    1.6232438010
C        0.7435913764   -1.3857990384    3.4955424870
N       -0.2917327030   -1.8892395097    2.8023488009
N        0.8581805546   -1.7885410266    4.8125960883
N        2.3315374416    0.9094939487    1.0088697221
O        2.4139005132    2.0083731383    1.5621355523
O        2.8979561356    0.5845257180   -0.0373162126
H        0.2119803633   -0.3035375994   -0.1588122091
H        2.4446668375   -0.0046474388    3.5264950604
H       -1.3272004063   -1.9074039759    1.0215824745
H        1.7786034953   -1.7541214442    5.2310279735
H        0.3182687599   -2.6153526513    5.0402604376
15   
Generated by ForceBalance from scan.xyz: Frame 21 of 24
C        0.3784699675   -0.6081079935    0.8716347105
C        1.6232168606   -0.4311245766    2.9527279924
C       -0.4569409369   -1.5088902442    1.5328077163
C        1.4312609572   -0.0904307347    1.6264594297
C        0.7317154380   -1.3804185148    3.5027165237
N       -0.2897559782   -1.9014767754    2.8017774168
N        0.8368724330   -1.7712042144    4.8241628445
N        2.3247754221    0.9121770242    1.0150862871
O        2.6145952032    1.9015643807    1.6928210408
O        2.6863533348    0.7076940090   -0.1465363663
H        0.2305757753   -0.3325770498   -0.1654151421
H        2.4158492392    0.0224152604    3.5381020605
H       -1.3063291363   -1.9447744980    1.0103112690
H        1.7513502183   -1.7177513260    5.2534811653
H        0.3072993652   -2.6043120241    5.0529542350
15   
Generated by ForceBalance from scan.xyz: Frame 22 of 24
C        0.3975874127   -0.6196771363    0.8722147520
C        1.6204132174   -0.4242303104    2.9638604054
C       -0.4304224910   -1.5328035940    1.5254980886
C        1.4348257793   -0.0832881100    1.6362017159
C        0.7346764002   -1.3820726269    3.5082581975
N       -0.2715804945   -1.9194199292    2.7976614781
N        0.8306986785   -1.7659264359    4.8325109609
N        2.3310441852    0.9225447288    1.0296043269
O        2.8299579600    1.7669158963    1.7789380198
O        2.4983447108    0.8652061307   -0.1913228966
H        0.2556743388   -0.3456674336   -0.1655770861
H        2.4062177627    0.0362284417    3.5520519441
H       -1.2661026406   -1.9842540020    0.9942253677
H        1.7393166593   -1.6962157747    5.2718590486
H        0.3112836500   -2.6059015659    5.0593950017
15   
Generated by ForceBalance from scan.xyz: Frame 23 of 24
C        0.4044560772   -0.6341800416    0.8673350204
C        1.6097946565   -0.4112821536    2.9658951068
C       -0.4124331612   -1.5587202599    1.5182983339
C        1.4265133294   -0.0751755514    1.6362232957
C        0.7284269945   -1.3726202503    3.5113697053
N       -0.2617839201   -1.9319552910    2.7955858183
N        0.8142332303   -1.7396620478    4.8412180869
N        2.3248340708    0.9306103759    1.0265304965
O        3.0241190022    1.6080079909    1.7851722964
O        2.3060132981    1.0364342557   -0.2022709231
H        0.2644880940   -0.3655408293   -0.1716805819
H        2.3918667312    0.0554883889    3.5533623610
H       -1.2323644053   -2.0311303581    0.9808254102
H        1.7167759416   -1.6516579442    5.2898265763
H        0.3051368993   -2.5850237182    5.0715372273
15   
Generated by ForceBalance from scan.xyz: Frame 24 of 24
C        0.4129278994   -0.6473377208    0.8607376543
C        1.5981778349   -0.4024416168    2.9683778730
C       -0.3943535115   -1.5834827907    1.5069806455
C        1.4189064312   -0.0694791885    1.6371676915
C        0.7189414015   -1.3668623071    3.5118816312
N       -0.2545535631   -1.9454888234    2.7887407762
N        0.7925185050   -1.7211958608    4.8459264499
N        2.3229505500    0.9319804045    1.0260883267
O        3.2013603665    1.4230529616    1.7407254078
O        2.1406746486    1.2118687663   -0.1612390201
H        0.2763678583   -0.3820368798   -0.1794110959
H        2.3774417631    0.0669916809    3.5571944280
H       -1.1972230573   -2.0755330710    0.9614770956
H        1.6883196813   -1.6171748817    5.3046165972
H        0.2929904932   -2.5721690564    5.0766216446
