29   
Generated by ForceBalance from scan.xyz: Frame 1 of 24
C       -4.3062180708   -5.3450905254   -5.0247473705
C       -3.0833853921   -3.2694906934   -5.2050406255
C       -4.2099569750   -5.2018317174   -3.6433674734
C       -3.7245601959   -4.3516499007   -5.8432414598
C       -3.0516489964   -3.2450517067   -3.8123939839
C       -1.7673715230   -1.0980959283   -3.5087897558
C       -1.0637017834    1.2256049524   -2.7632040542
C       -4.0263737842   -6.6583361162   -8.2687084275
C       -1.1686115840   -0.2535635893   -2.3854946252
C       -4.6416264769   -5.2841947942   -7.9779548184
N       -3.6007375405   -4.1861434914   -3.0201858571
N       -3.7569644976   -4.4061516497   -7.2180800254
N       -2.4402165436   -2.2155970523   -3.0703202766
O       -1.6271415283   -0.8063323054   -4.6947597213
H       -4.8122944522   -6.2086191915   -5.4400351347
H       -2.6221578411   -2.4684355315   -5.7685504071
H       -4.6519693260   -5.9571120739   -2.9947968125
H       -0.5019222096    1.3436582449   -3.6922867596
H       -0.5582881698    1.7874424446   -1.9716217162
H       -2.0552244061    1.6632307065   -2.9152238426
H       -3.1082111119   -6.5517099141   -8.8544289901
H       -3.7723473396   -7.1829800537   -7.3432988403
H       -4.7292465145   -7.2806146072   -8.8340292009
H       -1.7468919339   -0.3797470938   -1.4628983757
H       -0.1687603557   -0.6591995302   -2.1826929270
H       -5.5952002135   -5.3977068750   -7.4471486518
H       -4.8713159390   -4.7808645293   -8.9221232488
H       -3.4338321354   -3.5713275656   -7.6872669066
H       -2.5159280984   -2.3720644992   -2.0714123327
29   
Generated by ForceBalance from scan.xyz: Frame 2 of 24
C       -4.1817533914   -5.4109452166   -5.0073746377
C       -2.9823934381   -3.3230545185   -5.1895829314
C       -4.1518674695   -5.2305646050   -3.6275654861
C       -3.5710038468   -4.4346738561   -5.8235358556
C       -3.0091635023   -3.2634276268   -3.7962904980
C       -1.7705479450   -1.0896862844   -3.4952227900
C       -1.1225265487    1.2611116654   -2.7848114412
C       -4.2239194689   -6.6545254385   -8.3459800914
C       -1.2326503885   -0.2076860178   -2.3700992999
C       -4.5991784909   -5.2211447305   -7.9554412951
N       -3.5813338793   -4.1909251031   -3.0062049637
N       -3.5434673014   -4.5350708406   -7.2027910859
N       -2.4480753618   -2.2046822263   -3.0562960912
O       -1.5824322209   -0.8279406503   -4.6814071515
H       -4.6527631339   -6.2931095387   -5.4255283081
H       -2.5134699230   -2.5268767387   -5.7537329430
H       -4.6140366698   -5.9731681561   -2.9785681869
H       -0.5186903470    1.3583721966   -3.6895959580
H       -0.6595410028    1.8498772765   -1.9868973946
H       -2.1093984358    1.6846709212   -2.9954893993
H       -3.3275360815   -6.6599920803   -8.9736048100
H       -4.0144112354   -7.2641323841   -7.4622097541
H       -5.0412451778   -7.1269907723   -8.9025154311
H       -1.8526799196   -0.3135646622   -1.4723831326
H       -0.2401380355   -0.5977299330   -2.1089833970
H       -5.5295013808   -5.2155409789   -7.3743423316
H       -4.7923963968   -4.6371775800   -8.8609558169
H       -3.1799935380   -3.7044619317   -7.6525473919
H       -2.5675662007   -2.3343708299   -2.0578024294
29   
Generated by ForceBalance from scan.xyz: Frame 3 of 24
C       -4.0610876261   -5.5135061805   -4.9849621873
C       -2.9034448335   -3.4049223333   -5.1781302923
C       -4.0903280474   -5.2989274206   -3.6105390891
C       -3.4360946846   -4.5477049891   -5.8008230284
C       -2.9788458407   -3.3123331650   -3.7861566103
C       -1.7959542196   -1.1065311049   -3.4985255318
C       -1.1923240371    1.2700297743   -2.8351770952
C       -4.4291412576   -6.5952441734   -8.4236792191
C       -1.3177826009   -0.1848213221   -2.3783643144
C       -4.5513445626   -5.1479824965   -7.9390082961
N       -3.5615401988   -4.2318775131   -2.9968261322
N       -3.3705509695   -4.6918587201   -7.1827157880
N       -2.4695011882   -2.2225630854   -3.0545224381
O       -1.5684234610   -0.8738521314   -4.6836346533
H       -4.4930453072   -6.4156342129   -5.4039240856
H       -2.4370475777   -2.6099768480   -5.7460363864
H       -4.5619494390   -6.0332696138   -2.9591206464
H       -0.5430475018    1.3414598902   -3.7104080873
H       -0.7735498432    1.8870857910   -2.0342387332
H       -2.1686337577    1.6807573609   -3.1103316512
H       -3.5478789019   -6.7145986646   -9.0613821084
H       -4.3268875339   -7.2869352825   -7.5821681739
H       -5.3164589276   -6.8844137230   -8.9983416122
H       -1.9821746169   -0.2647363838   -1.5101220200
H       -0.3385542628   -0.5611170495   -2.0543302134
H       -5.4500085018   -5.0283641894   -7.3223903744
H       -4.6707438010   -4.4849686427   -8.8022902651
H       -2.9198485003   -3.8947875625   -7.6167194843
H       -2.6245354280   -2.3275486695   -2.0579546419
29   
Generated by ForceBalance from scan.xyz: Frame 4 of 24
C       -3.9024965283   -5.6499179726   -4.9744714755
C       -2.8419823484   -3.4945562439   -5.1918716802
C       -3.9766537632   -5.4072515506   -3.6065682613
C       -3.3023877542   -4.6751256141   -5.7957512743
C       -2.9500985489   -3.3754414328   -3.8014941283
C       -1.8674810638   -1.1157329479   -3.5392276464
C       -1.2720803828    1.2785732999   -2.9296950766
C       -4.6247796879   -6.5103871859   -8.4418449024
C       -1.4543138124   -0.1541210232   -2.4266079474
C       -4.4723607784   -5.0725463572   -7.9408875941
N       -3.5090243347   -4.3031726572   -3.0072855061
N       -3.2182912894   -4.8546504460   -7.1824086219
N       -2.5063447082   -2.2486606610   -3.0844849902
O       -1.6236340479   -0.8998111949   -4.7238486815
H       -4.2767265868   -6.5798354494   -5.3886058773
H       -2.4034490875   -2.6904444287   -5.7688922924
H       -4.4288752774   -6.1466933696   -2.9474303168
H       -0.5536940403    1.3085901614   -3.7517210203
H       -0.9107135852    1.9229346911   -2.1223230866
H       -2.2168895353    1.6878050514   -3.2998253892
H       -3.7758032729   -6.7902883273   -9.0730059045
H       -4.6691333514   -7.2171575006   -7.6078159596
H       -5.5451414875   -6.6174619873   -9.0273917150
H       -2.1839010539   -0.1903526664   -1.6089661399
H       -0.5094831382   -0.5307349394   -2.0128398737
H       -5.3319800753   -4.7946576865   -7.3196476553
H       -4.4663741619   -4.3893009183   -8.7967517558
H       -2.6788684648   -4.1016952032   -7.5963304109
H       -2.6776190726   -2.3382349333   -2.0889163225
29   
Generated by ForceBalance from scan.xyz: Frame 5 of 24
C       -3.6601085540   -5.8037569392   -5.0463638382
C       -2.7179393384   -3.5945389939   -5.2414251427
C       -3.7872506838   -5.5637152774   -3.6811642687
C       -3.1101879743   -4.7925326493   -5.8550976917
C       -2.8739992873   -3.4751682094   -3.8538059895
C       -1.9129443003   -1.1640220213   -3.5684453342
C       -1.4922198933    1.2644227629   -2.9510698533
C       -5.0770522253   -6.1174332841   -7.9886474429
C       -1.5837777857   -0.1777282812   -2.4497220918
C       -4.1638496931   -4.8970283795   -8.0904365439
N       -3.4059038826   -4.4301953888   -3.0757367789
N       -2.9453464866   -4.9791774307   -7.2480070697
N       -2.5052972923   -2.3278487499   -3.1275904574
O       -1.6446542178   -0.9404059396   -4.7461837769
H       -3.9400922734   -6.7628546380   -5.4657215344
H       -2.3007083940   -2.7720481788   -5.8083733682
H       -4.2056896017   -6.3294090012   -3.0299082726
H       -0.7668337404    1.3428906261   -3.7636681171
H       -1.1856549782    1.9313725401   -2.1394384911
H       -2.4577657145    1.6091421442   -3.3333218859
H       -4.5112038942   -7.0383140900   -8.1613137334
H       -5.5617122366   -6.1827820610   -7.0112989903
H       -5.8672019488   -6.0478161444   -8.7440423346
H       -2.3206038299   -0.2638517745   -1.6424773741
H       -0.6211684523   -0.4890865611   -2.0229418785
H       -4.7381504625   -3.9851419158   -7.8633913370
H       -3.8062057775   -4.8074502019   -9.1211110519
H       -2.2899609202   -4.2788617419   -7.5869820706
H       -2.7000126950   -2.4235061764   -2.1369148566
29   
Generated by ForceBalance from scan.xyz: Frame 6 of 24
C       -3.5401887059   -5.9420350486   -5.0135697817
C       -2.6620712597   -3.7101170981   -5.2467531613
C       -3.6914546076   -5.6789374677   -3.6540342211
C       -3.0057177928   -4.9347035700   -5.8320384070
C       -2.8391636766   -3.5650433770   -3.8626840237
C       -1.9567587324   -1.2189468473   -3.6166739757
C       -1.6242823003    1.2355303020   -3.0512888174
C       -5.1978017329   -5.7758247916   -7.8782093249
C       -1.6763628317   -0.1968114940   -2.5171483541
C       -4.0347341352   -4.8019963661   -8.0526128982
N       -3.3490028821   -4.5213030679   -3.0720118173
N       -2.8496888378   -5.1577648202   -7.2314334207
N       -2.5167423642   -2.3917705109   -3.1566142442
O       -1.6800067604   -1.0141353560   -4.7957040706
H       -3.8016197020   -6.9084582029   -5.4305379633
H       -2.2633622193   -2.8890760640   -5.8288609002
H       -4.0983057399   -6.4397696372   -2.9900268798
H       -0.8893026182    1.3192058701   -3.8546827246
H       -1.3524701321    1.9308996464   -2.2512366099
H       -2.5945511003    1.5390342246   -3.4558377016
H       -4.8760518614   -6.8011282430   -8.0861891418
H       -5.6048468245   -5.7401222090   -6.8638555246
H       -6.0058080421   -5.5166960330   -8.5706365245
H       -2.4222489577   -0.2882437861   -1.7188545383
H       -0.7107752056   -0.4664217408   -2.0692128191
H       -4.3750508855   -3.7767920560   -7.8352034117
H       -3.6997306342   -4.8219101380   -9.0947523275
H       -2.0787942619   -4.5755443454   -7.5542701582
H       -2.7202953244   -2.4719900822   -2.1663348752
29   
Generated by ForceBalance from scan.xyz: Frame 7 of 24
C       -4.4847840287   -4.9507468884   -5.3793009083
C       -2.6661010113   -3.3701443182   -5.4425432326
C       -4.6308289536   -4.6440376613   -4.0271135842
C       -3.4845086173   -4.2898170817   -6.1130101740
C       -2.9259412379   -3.1205237695   -4.0906832521
C       -1.1850694438   -1.3417559224   -3.6934298613
C        0.4524224109    0.4667691138   -2.9743204037
C       -3.2215872683   -4.0103221842   -9.8606217487
C       -0.6627031793   -0.4835310651   -2.5416050152
C       -3.5962279999   -3.5670921969   -8.4496899620
N       -3.8841889832   -3.7425398152   -3.3799838670
N       -3.2151559103   -4.6033277943   -7.4650284313
N       -2.1889633887   -2.2087915556   -3.3143835089
O       -0.7488713616   -1.2618146188   -4.8376660075
H       -5.1358717252   -5.6832215048   -5.8499453069
H       -1.8536644799   -2.8651221103   -5.9462888273
H       -5.3956249657   -5.1418805565   -3.4328588730
H        1.3032273176   -0.0875736817   -3.3782830075
H        0.7960119093    1.0609817236   -2.1218265651
H        0.1045479812    1.1470856109   -3.7556737344
H       -2.1464975324   -4.1991509532   -9.9322635037
H       -3.7485774814   -4.9303087603  -10.1415855145
H       -3.4915483330   -3.2386502896  -10.5885461996
H       -1.5059587041    0.0780701019   -2.1191135381
H       -0.3129269774   -1.1515919076   -1.7440344310
H       -4.6728958369   -3.3411150597   -8.3918731995
H       -3.0628287548   -2.6474064368   -8.1930548018
H       -3.7036491211   -5.4638422575   -7.7073215242
H       -2.4967711924   -2.1922557057   -2.3479203911
29   
Generated by ForceBalance from scan.xyz: Frame 8 of 24
C       -4.4964964355   -5.0024792372   -5.3228112053
C       -2.7296327478   -3.3664025870   -5.4381424908
C       -4.5923924733   -4.7210307452   -3.9623665610
C       -3.5482124210   -4.3014971399   -6.0917140807
C       -2.9353297375   -3.1515499885   -4.0722573778
C       -1.2199878020   -1.3376309930   -3.7192807821
C        0.4062201522    0.4966883474   -3.0397663745
C       -3.1844220193   -4.0134052329   -9.8330075571
C       -0.6736669754   -0.4801838830   -2.5778338856
C       -3.4519671370   -3.5004308706   -8.4211698194
N       -3.8437361851   -3.8099164407   -3.3293352939
N       -3.3402268890   -4.6028039143   -7.4460414494
N       -2.1902161570   -2.2298239548   -3.3145285722
O       -0.8271933095   -1.2349823128   -4.8778716059
H       -5.1471451956   -5.7463837382   -5.7759123175
H       -1.9555009052   -2.8205737150   -5.9581739628
H       -5.3190376283   -5.2493747730   -3.3468744052
H        1.2531940556   -0.0363035002   -3.4790171042
H        0.7678044415    1.0897100656   -2.1938879310
H        0.0173617523    1.1771548715   -3.8014264043
H       -2.1863670452   -4.4563891211   -9.9003968986
H       -3.9168307849   -4.7757685124  -10.1254193741
H       -3.2531460352   -3.1945670144  -10.5558346154
H       -1.5123124001    0.0602254121   -2.1200444028
H       -0.2825056077   -1.1485406042   -1.7999963751
H       -4.4440267685   -3.0259160820   -8.3670654982
H       -2.7164446410   -2.7350454665   -8.1613425312
H       -3.9543765969   -5.3632122129   -7.7285669542
H       -2.4595563437   -2.2336014530   -2.3365198071
29   
Generated by ForceBalance from scan.xyz: Frame 9 of 24
C       -4.4855920026   -5.0434563016   -5.2807874394
C       -2.7741843023   -3.3505796232   -5.4298809001
C       -4.5505556285   -4.7787506365   -3.9174126098
C       -3.5793631077   -4.3068842094   -6.0716805190
C       -2.9419980662   -3.1656384742   -4.0541669011
C       -1.2556216975   -1.3183921652   -3.7268395411
C        0.3558039566    0.5362691201   -3.0667158721
C       -3.2453247780   -4.0379798318   -9.8135515339
C       -0.7005355989   -0.4593675204   -2.5906321424
C       -3.2645646800   -3.4926826028   -8.3885555508
N       -3.8072435623   -3.8563434514   -3.2912466310
N       -3.4183717689   -4.5951388860   -7.4257628100
N       -2.2011911768   -2.2299397069   -3.3087371003
O       -0.8885795719   -1.1995099750   -4.8926424494
H       -5.1257760282   -5.8030310300   -5.7227184665
H       -2.0414433246   -2.7609291434   -5.9605409610
H       -5.2461301718   -5.3333670006   -3.2893012282
H        1.2026125663    0.0186120388   -3.5242955733
H        0.7238505448    1.1302565599   -2.2242874139
H       -0.0572113575    1.2147224062   -3.8173721900
H       -2.4290148455   -4.7550565458   -9.9438399808
H       -4.1876698443   -4.5422040883  -10.0604562509
H       -3.1088549933   -3.2230803412  -10.5306201886
H       -1.5385046084    0.0658891671   -2.1143539032
H       -0.2850492345   -1.1259196686   -1.8239581130
H       -4.0705466967   -2.7527837336   -8.2709089519
H       -2.3224040742   -2.9769770628   -8.1845269874
H       -4.1238529978   -5.2537049649   -7.7435169717
H       -2.4458676195   -2.2485443531   -2.3244132322
29   
Generated by ForceBalance from scan.xyz: Frame 10 of 24
C       -4.4823991285   -5.0868973993   -5.2701651901
C       -2.8184434918   -3.3468342512   -5.4427961527
C       -4.5170112625   -4.8390496783   -3.9046532897
C       -3.6117299808   -4.3195642693   -6.0759409071
C       -2.9484292654   -3.1903275076   -4.0586586560
C       -1.2801266778   -1.3227753012   -3.7498321812
C        0.3236189034    0.5418428250   -3.0990056970
C       -3.2506065095   -4.0077133945   -9.8071064332
C       -0.7122029410   -0.4710332326   -2.6143667734
C       -3.0983840939   -3.5226678618   -8.3683897054
N       -3.7748098066   -3.9104190647   -3.2823894198
N       -3.4984297666   -4.5781294862   -7.4324828181
N       -2.2103959250   -2.2448541215   -3.3220611104
O       -0.9349784039   -1.1887016671   -4.9209571284
H       -5.1137669066   -5.8577631615   -5.7050745358
H       -2.1244714446   -2.7214307901   -5.9836690228
H       -5.1838705239   -5.4165352255   -3.2661840674
H        1.1665617111    0.0391103502   -3.5797663247
H        0.7020812032    1.1295146114   -2.2567446916
H       -0.1115799868    1.2248417468   -3.8328402507
H       -2.6383017772   -4.8971964461   -9.9860402378
H       -4.2941953387   -4.2562915756  -10.0354157328
H       -2.9361436170   -3.2271635397  -10.5058237217
H       -1.5462006676    0.0391924520   -2.1153323144
H       -0.2743851697   -1.1419541127   -1.8640950613
H       -3.6903824738   -2.6095274074   -8.2061704802
H       -2.0516059096   -3.2633253527   -8.1814467804
H       -4.2577520247   -5.1492017521   -7.7877903167
H       -2.4323427973   -2.2774058149   -2.3326898674
29   
Generated by ForceBalance from scan.xyz: Frame 11 of 24
C       -4.5040725515   -5.0996185234   -5.2308440210
C       -2.8894070377   -3.3141800509   -5.4341353350
C       -4.4867698395   -4.8829364013   -3.8607914698
C       -3.6810832993   -4.2972414509   -6.0550237680
C       -2.9595653614   -3.1980818874   -4.0415817438
C       -1.3180307743   -1.3022127689   -3.7595609575
C        0.2819704298    0.5766483786   -3.1394486102
C       -3.2298051066   -4.0043935550   -9.7814034861
C       -0.7195466742   -0.4596857568   -2.6326942631
C       -3.0459387109   -3.5428179959   -8.3384697309
N       -3.7349289905   -3.9543764805   -3.2478620970
N       -3.6429527097   -4.5063210457   -7.4175664668
N       -2.2119128955   -2.2517352375   -3.3153703446
O       -1.0239158011   -1.1381163147   -4.9408822618
H       -5.1343300951   -5.8762632794   -5.6566971268
H       -2.2397408587   -2.6540120845   -5.9880067184
H       -5.1136403750   -5.4895628527   -3.2088902483
H        1.1140080425    0.0946297384   -3.6589358289
H        0.6827253426    1.1574977399   -2.3027623680
H       -0.1906680083    1.2636234252   -3.8458795583
H       -2.7694011825   -4.9848145787   -9.9401806530
H       -4.2921670827   -4.0753744155  -10.0439968565
H       -2.7658406998   -3.2917941069  -10.4692046786
H       -1.5415734910    0.0298598388   -2.0946245071
H       -0.2437154043   -1.1351777367   -1.9102120219
H       -3.4836748143   -2.5426289569   -8.1999998107
H       -1.9773563704   -3.4573662453   -8.1139937471
H       -4.4297919443   -5.0237964606   -7.7896748695
H       -2.3926219991   -2.3100015676   -2.3188163811
29   
Generated by ForceBalance from scan.xyz: Frame 12 of 24
C       -4.5574442219   -5.1252315104   -5.2801748376
C       -2.9884326494   -3.2976439999   -5.4922922207
C       -4.4927265786   -4.9449104894   -3.9067564349
C       -3.7836896242   -4.2808472669   -6.1124472091
C       -3.0117787850   -3.2204056002   -4.0963781492
C       -1.3994674633   -1.2987565340   -3.8199217595
C        0.2154663644    0.5669357263   -3.1984100989
C       -3.3145464319   -4.0413672472   -9.8419872304
C       -0.7822000033   -0.4727085964   -2.6908150801
C       -3.0543467249   -3.5993889540   -8.4046099872
N       -3.7400856564   -4.0155342813   -3.2952632696
N       -3.8142464103   -4.4216484129   -7.4744612706
N       -2.2568497491   -2.2786157093   -3.3710711399
O       -1.1506033732   -1.0954872973   -5.0057341467
H       -5.1901948611   -5.9011564058   -5.7037422110
H       -2.3707843989   -2.6117767959   -6.0517669111
H       -5.0800579454   -5.5846909118   -3.2496289820
H        1.0414186268    0.0888237247   -3.7313064829
H        0.6262391163    1.1391541525   -2.3606060973
H       -0.2638123243    1.2609373280   -3.8932445882
H       -3.0140999829   -5.0838311202   -9.9947784741
H       -4.3754152080   -3.9449435142  -10.0990160877
H       -2.7432058098   -3.4206815842  -10.5376710064
H       -1.5964705670    0.0133941472   -2.1379074550
H       -0.2997243976   -1.1569256678   -1.9811690218
H       -3.3292069843   -2.5427266906   -8.2829703457
H       -1.9827052386   -3.6778422013   -8.1784656776
H       -4.4259449280   -5.1272810288   -7.8593349466
H       -2.3971452294   -2.3708376870   -2.3705899158
29   
Generated by ForceBalance from scan.xyz: Frame 13 of 24
C       -4.5500416865   -5.0577634855   -5.2319446616
C       -3.0157934181   -3.2035735752   -5.4410744065
C       -4.4496690601   -4.9118330216   -3.8561056445
C       -3.8158334439   -4.1794476932   -6.0625154750
C       -3.0033842280   -3.1576210087   -4.0427230992
C       -1.4076422055   -1.2221898821   -3.7633837110
C        0.1954811165    0.6537729418   -3.1427330054
C       -3.2911139981   -3.9495785861   -9.7835974698
C       -0.7695690986   -0.4149466249   -2.6324426553
C       -2.9825332149   -3.5949523711   -8.3317315932
N       -3.6966862154   -3.9841735907   -3.2431904113
N       -3.9174621249   -4.2691128675   -7.4350118979
N       -2.2412419910   -2.2235085818   -3.3157230146
O       -1.1929720938   -0.9890841698   -4.9501966660
H       -5.1867420236   -5.8290054238   -5.6580484914
H       -2.4175911470   -2.4993886395   -5.9986913576
H       -5.0062819137   -5.5785189352   -3.1991118087
H        1.0118564817    0.2032189860   -3.7130521360
H        0.6230105757    1.2107348987   -2.3030654171
H       -0.3158695296    1.3576286130   -3.8039824138
H       -3.1788219666   -5.0256363032   -9.9627142744
H       -4.3135421663   -3.6611570653  -10.0478869530
H       -2.6029425563   -3.4287202168  -10.4553711186
H       -1.5739566521    0.0429463860   -2.0422887219
H       -0.2545611197   -1.1092672992   -1.9562244542
H       -3.0779489822   -2.5131436748   -8.1899689696
H       -1.9426258859   -3.8599835647   -8.0877778899
H       -4.2769455761   -5.1520144919   -7.7765127981
H       -2.3528573797   -2.3411811262   -2.3142963046
29   
Generated by ForceBalance from scan.xyz: Frame 14 of 24
C       -4.5340262081   -5.0390490404   -5.2719958356
C       -3.0551878623   -3.1399693203   -5.4581454184
C       -4.3947557860   -4.9409322690   -3.8942200254
C       -3.8438260605   -4.1171119972   -6.0903383898
C       -2.9933537415   -3.1486044147   -4.0605665137
C       -1.4336172395   -1.1882332873   -3.7576582963
C        0.1567668870    0.6883047150   -3.1085295654
C       -3.2909492970   -3.9709473196   -9.8082419941
C       -0.7846687198   -0.4084797962   -2.6139689275
C       -2.9514336890   -3.6457112406   -8.3565840682
N       -3.6411016009   -4.0217676477   -3.2717055161
N       -4.0066085999   -4.1395623315   -7.4662017649
N       -2.2316610562   -2.2235968750   -3.3220321010
O       -1.2573169954   -0.9079729246   -4.9404716733
H       -5.1637424724   -5.8112608913   -5.7068994344
H       -2.4996805917   -2.3959641963   -6.0087063922
H       -4.9150199636   -5.6440964435   -3.2455678819
H        0.9691167552    0.2664065458   -3.7059416535
H        0.5913979280    1.2258923113   -2.2599524991
H       -0.3756286521    1.4041205114   -3.7395570138
H       -3.3608007827   -5.0537961503   -9.9680595284
H       -4.2450373355   -3.5186323422  -10.0967648312
H       -2.5129251512   -3.5878217745  -10.4747632173
H       -1.5842043500    0.0204399591   -1.9960460183
H       -0.2486540016   -1.1159594250   -1.9684290327
H       -2.8681113783   -2.5609197112   -8.2374035862
H       -1.9758421727   -4.0756060522   -8.0846002455
H       -4.4268770257   -5.0014560523   -7.7970418865
H       -2.3111979680   -2.3788092199   -2.3226670540
29   
Generated by ForceBalance from scan.xyz: Frame 15 of 24
C       -4.4879625674   -5.0415538150   -5.3215169918
C       -3.0697564755   -3.0967220548   -5.4751433668
C       -4.3331862325   -4.9768407703   -3.9414115223
C       -3.8339605555   -4.0823555725   -6.1226225472
C       -2.9791630347   -3.1447842225   -4.0806745253
C       -1.4585632360   -1.1599128349   -3.7463898372
C        0.1133765533    0.7249961442   -3.0769903674
C       -3.3052090191   -3.9453550498   -9.8493609415
C       -0.8126310675   -0.3901397809   -2.5943485948
C       -2.8842107101   -3.7915558879   -8.3908061247
N       -3.5917552213   -4.0581958219   -3.3073306643
N       -4.0273063052   -4.0558877424   -7.5024244386
N       -2.2337394306   -2.2194916997   -3.3267856292
O       -1.3001799249   -0.8524654430   -4.9246980553
H       -5.1003301818   -5.8208875734   -5.7684359778
H       -2.5558943024   -2.3152277038   -6.0149723136
H       -4.8262026948   -5.7100578750   -3.3047999176
H        0.9285572538    0.3215720468   -3.6832900203
H        0.5447905685    1.2559454479   -2.2226304126
H       -0.4303181796    1.4428713017   -3.6958699758
H       -3.6487126056   -4.9656392838  -10.0598406593
H       -4.1169367814   -3.2536380534  -10.0945176651
H       -2.4603156280   -3.7379149406  -10.5126902642
H       -1.6144511865    0.0203933333   -1.9669293239
H       -0.2655089346   -1.1005028793   -1.9614805894
H       -2.5353673414   -2.7696702532   -8.2196318964
H       -2.0436295347   -4.4632977226   -8.1603274004
H       -4.5424181298   -4.8739657663   -7.8149946078
H       -2.2990841540   -2.4000988203   -2.3307002677
29   
Generated by ForceBalance from scan.xyz: Frame 16 of 24
C       -4.4439203193   -5.0445537776   -5.3184640216
C       -3.0881401533   -3.0563251907   -5.4618909226
C       -4.2619766405   -5.0016540650   -3.9385110555
C       -3.8337217591   -4.0536865671   -6.1107723586
C       -2.9561616209   -3.1318766059   -4.0722669135
C       -1.4604984786   -1.1306159399   -3.7325716605
C        0.0962770293    0.7662912705   -3.0625602769
C       -3.3021250655   -3.9047491819   -9.8400870087
C       -0.8033801116   -0.3705076105   -2.5806357137
C       -2.8707258672   -3.9944700204   -8.3793164908
N       -3.5279941130   -4.0784629200   -3.3058892761
N       -4.0524809061   -3.9890463689   -7.4950678305
N       -2.2209826030   -2.2021191522   -3.3146944692
O       -1.3235049040   -0.8077064564   -4.9090805815
H       -5.0423783363   -5.8329537245   -5.7682718642
H       -2.6243763204   -2.2442457320   -6.0032765546
H       -4.7229693746   -5.7578036371   -3.3047234304
H        0.9042746601    0.3854005457   -3.6925234446
H        0.5377005439    1.2886284249   -2.2080262122
H       -0.4703898698    1.4867655813   -3.6573679780
H       -3.9213789184   -4.7637029064  -10.1261708319
H       -3.8813075298   -2.9935544530  -10.0165770528
H       -2.4265179132   -3.8952864070  -10.4965396393
H       -1.5982334249    0.0171122189   -1.9302272952
H       -0.2331105543   -1.0832782049   -1.9712794604
H       -2.2469383115   -3.1338501662   -8.1253607813
H       -2.2597428339   -4.8954695617   -8.2144295626
H       -4.6864736667   -4.7323241232   -7.7793448635
H       -2.2639566015   -2.4005538331   -2.3208048695
29   
Generated by ForceBalance from scan.xyz: Frame 17 of 24
C       -4.3880937968   -5.0305303226   -5.3727939891
C       -3.0997623196   -2.9956748812   -5.4712169317
C       -4.1725683498   -5.0346965278   -3.9953614878
C       -3.8286027283   -3.9914534152   -6.1363132664
C       -2.9234752625   -3.1207009697   -4.0889687186
C       -1.4708281671   -1.0964194003   -3.7088928260
C        0.0591891777    0.8091079817   -3.0039194959
C       -3.2908151560   -3.9420357395   -9.8646060652
C       -0.8110551784   -0.3592220061   -2.5438718349
C       -2.9116267249   -4.1474120531   -8.4011963510
N       -3.4489405674   -4.1140286416   -3.3490517357
N       -4.0693452850   -3.8669466556   -7.5238788881
N       -2.1984747367   -2.1994199897   -3.3126265195
O       -1.3643276816   -0.7327343683   -4.8761114468
H       -4.9737126304   -5.8186001953   -5.8396294352
H       -2.6838728388   -2.1505745924   -6.0019613699
H       -4.5955349856   -5.8257815717   -3.3779576377
H        0.8654529759    0.4633058302   -3.6559686965
H        0.5024194984    1.3146270973   -2.1402789141
H       -0.5299958167    1.5352729509   -3.5691434457
H       -4.0957254728   -4.6233163124  -10.1662802048
H       -3.6322919945   -2.9166592616  -10.0337210700
H       -2.4312469035   -4.1371414472  -10.5136908374
H       -1.6036991566   -0.0070160245   -1.8709767489
H       -0.2183624654   -1.0786153777   -1.9644220092
H       -2.1061924592   -3.4613570072   -8.1241230045
H       -2.5320339655   -5.1694306542   -8.2431108925
H       -4.8240460816   -4.4993544199   -7.7852293541
H       -2.2143670385   -2.4338787388   -2.3258055022
29   
Generated by ForceBalance from scan.xyz: Frame 18 of 24
C       -5.3257667964   -5.2493707142   -4.6661840204
C       -3.8379697274   -3.4119037020   -5.1311211869
C       -4.9713054571   -5.1257407057   -3.3250885585
C       -4.7588027803   -4.3600920042   -5.5928844715
C       -3.5706340579   -3.3660925316   -3.7547935437
C       -1.9100458815   -1.4726389738   -3.7634183985
C       -0.6578183623    0.6840090836   -3.2820308072
C       -2.7383316133   -5.0948846806   -7.8092806075
C       -0.9991607053   -0.7246795535   -2.7923967278
C       -4.2219685680   -5.4657856760   -7.7108686135
N       -4.1170023041   -4.2031725237   -2.8599703817
N       -5.0765538252   -4.5041356400   -6.9739901914
N       -2.6805811356   -2.4479417023   -3.1673899336
O       -1.9239353331   -1.2368071320   -4.9689027131
H       -6.0408197101   -5.9977782892   -4.9927009670
H       -3.3468513966   -2.7168349196   -5.7990381461
H       -5.4009750668   -5.7922367294   -2.5790696197
H       -0.2198711332    0.6464151325   -4.2817525724
H        0.0549118136    1.1615729849   -2.6027464910
H       -1.5542743105    1.3092384773   -3.3346587828
H       -2.6038776280   -4.1274723145   -8.3071898138
H       -2.2717487275   -5.0332668291   -6.8221270024
H       -2.1998034049   -5.8501595707   -8.3928245645
H       -1.4534564028   -0.6916652006   -1.7953042897
H       -0.0816430680   -1.3199134485   -2.6947454841
H       -4.3328739334   -6.4413724349   -7.2262750457
H       -4.6520993448   -5.5628997363   -8.7134955658
H       -4.9714492398   -3.5941484348   -7.4221989775
H       -2.6032916861   -2.5766567208   -2.1644463695
29   
Generated by ForceBalance from scan.xyz: Frame 19 of 24
C       -5.2082611544   -5.2309397703   -4.7222826086
C       -3.7814492581   -3.3306320210   -5.1276876166
C       -4.8457305326   -5.1443433410   -3.3818427441
C       -4.6744489978   -4.2905537014   -5.6216337900
C       -3.5068809985   -3.3275107128   -3.7530341783
C       -1.9087235740   -1.3808581709   -3.7001708407
C       -0.7161731338    0.7928777368   -3.1479750010
C       -2.8561871948   -5.4045689089   -7.8414060118
C       -1.0173689027   -0.6402518079   -2.7054550634
C       -4.3838856807   -5.4741229548   -7.7474307119
N       -4.0175036347   -4.2139233366   -2.8846970661
N       -5.0052214006   -4.3622159408   -6.9943178644
N       -2.6426127599   -2.4029860523   -3.1378612749
O       -1.9377546105   -1.0995712420   -4.8956558478
H       -5.9074057586   -5.9884112583   -5.0623549691
H       -3.3136134082   -2.5984763289   -5.7729363001
H       -5.2493777417   -5.8520139021   -2.6595514987
H       -0.2780009462    0.8009960105   -4.1482796600
H       -0.0168194094    1.2676177696   -2.4529563687
H       -1.6299668096    1.3938966689   -3.1802659531
H       -2.5326451490   -4.4785467252   -8.3308404009
H       -2.3964448108   -5.4391335652   -6.8491444675
H       -2.4707152525   -6.2468247972   -8.4267950132
H       -1.4714187392   -0.6530584417   -1.7077624169
H       -0.0835330237   -1.2126043223   -2.6275151443
H       -4.6887540915   -6.4112588240   -7.2720382885
H       -4.8287676316   -5.4710685082   -8.7480458231
H       -4.7406721973   -3.4871656415   -7.4439845913
H       -2.5537188981   -2.5674347479   -2.1411081345
29   
Generated by ForceBalance from scan.xyz: Frame 20 of 24
C       -5.0578077141   -5.2241700619   -4.7997715631
C       -3.6835859625   -3.2743037223   -5.1518403556
C       -4.7108332663   -5.1510006152   -3.4550706596
C       -4.5415448396   -4.2515145942   -5.6783450753
C       -3.4220595029   -3.2923065302   -3.7766428016
C       -1.8832424261   -1.3000449371   -3.6675351616
C       -0.7721250394    0.8991895284   -3.0499973027
C       -3.0020581581   -5.7364998178   -7.9117090918
C       -1.0223301223   -0.5558175376   -2.6488239961
C       -4.5091060567   -5.4766236443   -7.8154256701
N       -3.9141771845   -4.2095140327   -2.9284612528
N       -4.8640300184   -4.2701515150   -7.0442665904
N       -2.5907500854   -2.3554750225   -3.1347865714
O       -1.9102813070   -0.9923819320   -4.8567452461
H       -5.7318221577   -5.9985416852   -5.1512651032
H       -3.2318519368   -2.5141252717   -5.7761435096
H       -5.1019321223   -5.8853568263   -2.7526387814
H       -0.3329032557    0.9510462814   -4.0485340977
H       -0.0914476806    1.3790738549   -2.3400918895
H       -1.7069230892    1.4676926981   -3.0677495400
H       -2.4878787487   -4.8964858990   -8.3927263440
H       -2.5647532016   -5.8757900788   -6.9182643078
H       -2.8036567518   -6.6370674342   -8.5034773167
H       -1.4779677438   -0.6129348551   -1.6534350899
H       -0.0684657722   -1.0958143869   -2.5838324402
H       -5.0105176792   -6.3344835070   -7.3592257927
H       -4.9431826418   -5.3594929506   -8.8137144610
H       -4.4721075566   -3.4501470539   -7.5015176885
H       -2.5064282493   -2.5387188468   -2.1409507361
29   
Generated by ForceBalance from scan.xyz: Frame 21 of 24
C       -4.8817366459   -5.2224634449   -4.8853627149
C       -3.5707898371   -3.2188213977   -5.1829975512
C       -4.5590198781   -5.1560602723   -3.5340766269
C       -4.3861685609   -4.2178215560   -5.7419837372
C       -3.3271926351   -3.2535127337   -3.8073854770
C       -1.8532565532   -1.2163669137   -3.6415996729
C       -0.8347000080    1.0108390808   -2.9673001088
C       -3.2068059365   -6.0490311190   -7.9529139246
C       -1.0353438018   -0.4599032009   -2.5966047357
C       -4.6095919376   -5.4343340727   -7.8906516679
N       -3.8021186577   -4.1995608378   -2.9787446991
N       -4.6894760106   -4.1958237633   -7.1026543189
N       -2.5370325503   -2.3003829395   -3.1373910536
O       -1.8671733685   -0.8921915171   -4.8268774114
H       -5.5152909569   -6.0224899184   -5.2526434146
H       -3.1395852384   -2.4301948784   -5.7863969966
H       -4.9352250845   -5.9166301869   -2.8514447846
H       -0.3851276121    1.0978273921   -3.9587667551
H       -0.1816105777    1.5023116639   -2.2395934671
H       -1.7899053243    1.5443564328   -2.9870050674
H       -2.4920955485   -5.3494024501   -8.4006262898
H       -2.8476410921   -6.3050582125   -6.9515796883
H       -3.2130573796   -6.9618135005   -8.5589643828
H       -1.5022247413   -0.5526011522   -1.6091537490
H       -0.0627235562   -0.9647666292   -2.5277344394
H       -5.3214973329   -6.1562241384   -7.4811686103
H       -4.9666608653   -5.1939811173   -8.8970397510
H       -4.2066274833   -3.4339945504   -7.5697005045
H       -2.4651103156   -2.4960895966   -2.1450012368
29   
Generated by ForceBalance from scan.xyz: Frame 22 of 24
C       -4.7079516276   -5.2367348459   -4.9688997656
C       -3.4418502306   -3.1974522091   -5.2156534661
C       -4.4272238800   -5.1681718426   -3.6077713082
C       -4.2123251532   -4.2160289371   -5.8081099862
C       -3.2317467841   -3.2388966586   -3.8370235378
C       -1.8048913682   -1.1736655789   -3.6179880915
C       -0.8766674854    1.0768205363   -2.8937459610
C       -3.4296579078   -6.2923575305   -8.0359065580
C       -1.0360533752   -0.4045574622   -2.5453173401
C       -4.6690511808   -5.3925548236   -7.9554828144
N       -3.7080871910   -4.2004441929   -3.0248191827
N       -4.4778126085   -4.1728387963   -7.1680546058
N       -2.4839535889   -2.2712147297   -3.1389088073
O       -1.7858574854   -0.8458214670   -4.8024366414
H       -5.3031223389   -6.0569385421   -5.3540877727
H       -3.0199530351   -2.3898063065   -5.8001686587
H       -4.8046063200   -5.9429630610   -2.9417840776
H       -0.4103161410    1.1908545814   -3.8746728091
H       -0.2549806089    1.5802571870   -2.1469387602
H       -1.8484436249    1.5789883158   -2.9264716214
H       -2.5911256106   -5.7600295302   -8.4980848655
H       -3.1155645291   -6.6175420941   -7.0397587379
H       -3.6399594041   -7.1836964218   -8.6374275521
H       -1.5204260117   -0.5251481321   -1.5694139163
H       -0.0486766109   -0.8774541070   -2.4618693763
H       -5.5166130421   -5.9474690455   -7.5428001409
H       -4.9751536005   -5.0785781971   -8.9582164169
H       -3.9271227802   -3.4705501928   -7.6495048782
H       -2.4399701852   -2.4693941357   -2.1454428773
29   
Generated by ForceBalance from scan.xyz: Frame 23 of 24
C       -4.5627035374   -5.2776798051   -5.0159205817
C       -3.3271858087   -3.2128690666   -5.2225134839
C       -4.3393566903   -5.1935912885   -3.6445506655
C       -4.0472797947   -4.2547557928   -5.8420883514
C       -3.1683645718   -3.2481102228   -3.8384574540
C       -1.7924869990   -1.1542629973   -3.5714651569
C       -0.9552076129    1.1203228440   -2.8128107096
C       -3.6455330244   -6.4728163280   -8.1328775818
C       -1.0817507726   -0.3662778723   -2.4726503681
C       -4.6972380530   -5.3646719953   -7.9869220243
N       -3.6595347621   -4.2132654849   -3.0378917597
N       -4.2553330826   -4.2151438357   -7.2051754992
N       -2.4692055687   -2.2623626516   -3.1150882115
O       -1.7317428876   -0.8302166776   -4.7557217372
H       -5.1233843599   -6.1141126297   -5.4167865158
H       -2.9055016228   -2.3951328540   -5.7929199234
H       -4.7312062051   -5.9710392135   -2.9900245779
H       -0.4623158247    1.2506029828   -3.7786323537
H       -0.3718508946    1.6396273485   -2.0461787973
H       -1.9398346148    1.5940466506   -2.8744157444
H       -2.7542686042   -6.0963922594   -8.6462305649
H       -3.3354631001   -6.8534516137   -7.1554901764
H       -4.0469239708   -7.3092380610   -8.7159851530
H       -1.5927683494   -0.5038387405   -1.5127369323
H       -0.0838500801   -0.8098393308   -2.3592592890
H       -5.6121002959   -5.7621905568   -7.5367346348
H       -4.9854508770   -4.9897828680   -8.9739908764
H       -3.6711037513   -3.5525820736   -7.6996484736
H       -2.4648902467   -2.4540456267   -2.1194375214
29   
Generated by ForceBalance from scan.xyz: Frame 24 of 24
C       -4.4335320985   -5.3077935536   -5.0189969839
C       -3.2080478620   -3.2347839743   -5.2162196908
C       -4.2717158892   -5.1915702663   -3.6414837567
C       -3.8872908177   -4.2998009954   -5.8456532158
C       -3.1088463466   -3.2398755831   -3.8270160493
C       -1.7753130410   -1.1203659930   -3.5436941808
C       -0.9972036394    1.1781949689   -2.7937661691
C       -3.8433229031   -6.5946699423   -8.2190832404
C       -1.1178435439   -0.3038540155   -2.4324547235
C       -4.6893580095   -5.3350023215   -7.9880521082
N       -3.6266460093   -4.1925552593   -3.0272287584
N       -4.0168414914   -4.3048412952   -7.2119171190
N       -2.4531700980   -2.2304584750   -3.0949065967
O       -1.6743312736   -0.8141821806   -4.7301009871
H       -4.9650757262   -6.1602488047   -5.4255078449
H       -2.7706801769   -2.4240471593   -5.7847628981
H       -4.6864208231   -5.9581146632   -2.9880501550
H       -0.4686949688    1.2984482619   -3.7418991883
H       -0.4509796945    1.7185617817   -2.0144207741
H       -1.9846889009    1.6374108536   -2.9020308038
H       -2.9315879004   -6.3515240118   -8.7742147159
H       -3.5463325091   -7.0489443669   -7.2694584448
H       -4.4083436596   -7.3371787760   -8.7938371441
H       -1.6639883874   -0.4316635010   -1.4907009225
H       -0.1195395814   -0.7319452542   -2.2726318287
H       -5.6307180234   -5.5939273576   -7.4911703096
H       -4.9650949777   -4.8912819459   -8.9498473345
H       -3.5133216276   -3.5879694890   -7.7151730345
H       -2.4863805639   -2.4044051145   -2.0965607764
