27   
Generated by ForceBalance from scan.xyz: Frame 1 of 24
C        0.3594059956   -0.4369616635    0.7420662248
C        1.6980456794   -0.5841461552    2.7420934109
C       -0.5090176582   -1.3337618307    1.3495897317
C        1.5073183292   -0.0491911721    1.4658099181
C        0.7456889546   -1.4855300271    3.2414641619
C        2.3733766042    1.6849969260   -0.1283675397
C        0.4841477680   -3.2922603542    6.4091078623
C        3.5932048540    3.2867019372   -1.5158185628
C        0.0066545542   -2.8996935030    5.0220387092
N       -0.3418555282   -1.8652495403    2.5754819214
N        2.4854247697    0.8230233312    0.9664159152
N        3.5053989748    2.4626966546   -0.3125868912
O        1.3811000789    1.7731751818   -0.8419345191
O        0.9804503983   -1.9788637787    4.4841878102
H        0.1566773080   -0.0369216212   -0.2404958755
H        2.5573000611   -0.3265192697    3.3554736267
H       -1.4048611528   -1.6515064038    0.8185505102
H        1.4642437976   -3.7768066666    6.3629017989
H        0.5626840908   -2.4147924675    7.0582244116
H       -0.2263680773   -3.9928519559    6.8601540267
H        3.7217775715    2.6879278110   -2.4260274296
H        4.4370595924    3.9724551988   -1.4090630669
H        2.6755307126    3.8669319339   -1.6161801877
H       -0.9726830378   -2.4122684308    5.0507320726
H       -0.0750193066   -3.7660834715    4.3584354209
H        3.2416305827    1.0183866159    1.6107193033
H        4.3802444350    2.0805073454    0.0251763684
27   
Generated by ForceBalance from scan.xyz: Frame 2 of 24
C        0.4331158696   -0.5576692338    0.6659437429
C        1.7590464522   -0.6725931906    2.6753721501
C       -0.4639927020   -1.4074521886    1.2976364621
C        1.5890560617   -0.1804510662    1.3808003054
C        0.7817814666   -1.5345583132    3.1988143531
C        2.3880744001    1.6606744217   -0.1032913710
C        0.4495449316   -3.2126122041    6.4297232277
C        3.5217219897    3.3914786287   -1.4074413087
C       -0.0075605053   -2.8601172548    5.0251635258
N       -0.3131639429   -1.9044484377    2.5406121628
N        2.5917752388    0.6413507286    0.8379182456
N        3.5309441425    2.4109298087   -0.3244635493
O        1.3210444585    1.8819873188   -0.6616708185
O        0.9976991925   -1.9919373187    4.4584574465
H        0.2428445007   -0.1827764393   -0.3295412355
H        2.6198021779   -0.4124721457    3.2854167515
H       -1.3675300650   -1.7166481507    0.7748299171
H        1.4149130710   -3.7275294186    6.4093025307
H        0.5505012667   -2.3132503810    7.0448743237
H       -0.2844135448   -3.8736351565    6.9024098262
H        3.5178240931    2.9214686286   -2.3987560813
H        4.4039192160    4.0287430155   -1.3104171238
H        2.6271800747    4.0085183574   -1.3189489070
H       -0.9711712849   -2.3414974735    5.0280391107
H       -0.1127054616   -3.7488097001    4.3951828847
H        3.3897088438    0.7739259769    1.4479950950
H        4.4155281476    1.9479317902   -0.1545083967
27   
Generated by ForceBalance from scan.xyz: Frame 3 of 24
C        0.4824419606   -0.6760166959    0.5887120002
C        1.8005714159   -0.7344880291    2.6059507371
C       -0.4395301987   -1.4737650783    1.2506123281
C        1.6451748645   -0.3014403016    1.2908949800
C        0.8019553184   -1.5542621659    3.1599104560
C        2.3940626623    1.6358389757   -0.0605420187
C        0.4190455982   -3.0857535809    6.4570864200
C        3.4537969041    3.4856960270   -1.2602481332
C       -0.0264662320   -2.7796111289    5.0380441650
N       -0.2997152957   -1.9229564562    2.5135148819
N        2.6581344686    0.4793955310    0.6961377781
N        3.5394988814    2.3663275485   -0.3252093608
O        1.2789135607    1.9685820706   -0.4385498930
O        1.0036523861   -1.9648162672    4.4376095872
H        0.3066509964   -0.3391536722   -0.4239927840
H        2.6629175037   -0.4623631014    3.2082486847
H       -1.3507352200   -1.7812727594    0.7405071370
H        1.3692866786   -3.6284488307    6.4602385686
H        0.5451800004   -2.1646219134    7.0341651835
H       -0.3339675735   -3.7051365371    6.9554712930
H        3.3003316952    3.1564821193   -2.2954753044
H        4.3767869777    4.0669325448   -1.1964554437
H        2.6144912781    4.1211387590   -0.9763029683
H       -0.9748032330   -2.2339135140    5.0168842606
H       -0.1562275181   -3.6905230867    4.4455174919
H        3.5030984201    0.5327333023    1.2540435170
H        4.4100548540    1.8486441724   -0.3323547426
27   
Generated by ForceBalance from scan.xyz: Frame 4 of 24
C        0.5218984350   -0.8129778901    0.5096674717
C        1.8393960105   -0.7958060541    2.5266506320
C       -0.4115999508   -1.5700721490    1.2021943735
C        1.6885156884   -0.4256372862    1.1941882589
C        0.8325063471   -1.5843622670    3.1138461961
C        2.4037554439    1.6053420606    0.0055587557
C        0.4260781277   -2.9626973008    6.4748916332
C        3.4094577400    3.5586986877   -1.0704820066
C       -0.0127384228   -2.7158998321    5.0423272972
N       -0.2723084463   -1.9677904801    2.4824290934
N        2.6933412176    0.3351142260    0.5465847960
N        3.5474593386    2.3144545286   -0.3172278952
O        1.2703366175    2.0347499023   -0.1574890655
O        1.0288134877   -1.9423125760    4.4076108129
H        0.3550692049   -0.5180600813   -0.5188866611
H        2.7018765463   -0.5000238030    3.1170724083
H       -1.3276487568   -1.8880826758    0.7076448273
H        1.3693680396   -3.5165353143    6.5052491736
H        0.5625088803   -2.0179119030    7.0097929790
H       -0.3357545672   -3.5493268307    6.9988436507
H        3.1098622712    3.3874521315   -2.1119696962
H        4.3641794732    4.0897614681   -1.0493878101
H        2.6486657140    4.1776732198   -0.5942221774
H       -0.9539004293   -2.1596467923    4.9938222825
H       -0.1527911697   -3.6511002204    4.4913976352
H        3.5868775640    0.2990481094    1.0261137431
H        4.3705414402    1.7608332078   -0.5226315515
27   
Generated by ForceBalance from scan.xyz: Frame 5 of 24
C        0.5252530203   -0.9571570745    0.4142911069
C        1.8393102945   -0.8316670459    2.4281133554
C       -0.4086739989   -1.6828186271    1.1403206756
C        1.6874324843   -0.5329203822    1.0798062694
C        0.8349834987   -1.5958330886    3.0530253011
C        2.4061946112    1.5720988863    0.0688770116
C        0.4260348040   -2.8012676606    6.4791775912
C        3.3882438279    3.6083342996   -0.8656619955
C       -0.0129677046   -2.6269078714    5.0361416255
N       -0.2665749617   -2.0148766178    2.4383905443
N        2.6753315040    0.2214373383    0.3828108011
N        3.5417883339    2.2645645465   -0.3131307899
O        1.2920793839    2.0723610624    0.1279064043
O        1.0297806963   -1.8880486392    4.3628031421
H        0.3648042625   -0.7150103202   -0.6299222464
H        2.6974645013   -0.4964989021    3.0031188564
H       -1.3234471020   -2.0288872139    0.6625677365
H        1.3682904183   -3.3546339022    6.5371494237
H        0.5645134609   -1.8307307425    6.9651323346
H       -0.3366329058   -3.3590524825    7.0325512625
H        2.9363700359    3.6020519791   -1.8654440128
H        4.3714426128    4.0827459993   -0.9141006885
H        2.7455609491    4.1909793807   -0.2050643956
H       -0.9530045062   -2.0718820302    4.9594112092
H       -0.1546250326   -3.5885531818    4.5332878051
H        3.6073039497    0.0862919250    0.7626228938
H        4.2886998197    1.7051850338   -0.7073553727
27   
Generated by ForceBalance from scan.xyz: Frame 6 of 24
C        0.5086762279   -1.1140996748    0.3419068531
C        1.8072447189   -0.8407375260    2.3496882604
C       -0.4015621035   -1.8414226262    1.0981882749
C        1.6477589416   -0.6125331939    0.9898399139
C        0.8282800485   -1.6093595195    3.0092813606
C        2.4105682009    1.5467724698    0.1566614115
C        0.4444129730   -2.6604258791    6.4884634781
C        3.4073302792    3.6253753336   -0.6624866613
C        0.0082660252   -2.5748427020    5.0366395070
N       -0.2526624750   -2.1010486948    2.4108759015
N        2.6061934124    0.1526487575    0.2491367433
N        3.5304863515    2.2119045504   -0.3139987778
O        1.3646870933    2.1041118464    0.4591463350
O        1.0257526698   -1.8297293173    4.3319171338
H        0.3498484187   -0.9314624567   -0.7151078952
H        2.6492030033   -0.4424082601    2.9074344153
H       -1.2991242326   -2.2478677527    0.6355223361
H        1.4070578671   -3.1729538012    6.5780588223
H        0.5418722684   -1.6624212509    6.9262490807
H       -0.2996086454   -3.2197060017    7.0652037165
H        2.8108911200    3.7845002599   -1.5696196445
H        4.4079045115    4.0400436221   -0.8081466893
H        2.9219548470    4.1511869373    0.1602354729
H       -0.9520216816   -2.0613882651    4.9281764998
H       -0.0924225146   -3.5649524327    4.5813225455
H        3.5648726381   -0.0959194803    0.4741846404
H        4.1517801605    1.6648432358   -0.8979477881
27   
Generated by ForceBalance from scan.xyz: Frame 7 of 24
C        0.2117707510   -0.3949401783    1.2962906115
C        1.7444656679   -1.3379701584    2.8951790411
C       -0.7995559294   -1.1101486277    1.9255290501
C        1.5185888573   -0.5090905153    1.8060165784
C        0.6372579944   -1.9928465453    3.4651686479
C        3.2257259510    1.2469795227    1.7774952717
C        0.3137980504   -4.2517190735    6.3194542505
C        4.9069641222    2.9954579292    1.4608529373
C       -0.2283981802   -3.4635559863    5.1402423092
N       -0.6069096934   -1.8974246131    2.9985445604
N        2.6088547387    0.1381115563    1.1567789005
N        4.0416871717    1.9542629326    0.9111480184
O        3.0584567209    1.5469764675    2.9508147953
O        0.8909607572   -2.7754487231    4.5413571141
H       -0.0084830724    0.2439074902    0.4455486292
H        2.7346721004   -1.4685594795    3.3154573043
H       -1.8234575062   -1.0472760976    1.5606158142
H        1.0624852637   -4.9794872056    5.9920923987
H        0.7771255398   -3.5857802097    7.0535770522
H       -0.5027382376   -4.7923290908    6.8094803441
H        5.3172616256    3.5830005699    0.6358849282
H        5.7287172063    2.5849923645    2.0608298934
H        4.3119941172    3.6486181157    2.0998087325
H       -0.9775101004   -2.7286978879    5.4507612773
H       -0.6930336312   -4.1144077440    4.3928871456
H        2.4345809514    0.2890947451    0.1681217237
H        4.4232087972    1.4259206405    0.1354800014
27   
Generated by ForceBalance from scan.xyz: Frame 8 of 24
C        0.1417067901   -0.4674713105    1.2306808816
C        1.6870532972   -1.2503317743    2.9048984457
C       -0.8342943409   -1.2380183441    1.8484369625
C        1.4376371538   -0.4684527010    1.7837698292
C        0.6114786764   -1.9711326297    3.4535730940
C        3.2396277536    1.2116463320    1.8156357833
C        0.3641973335   -4.1826433560    6.3523774844
C        4.9855520133    2.9004348430    1.5265136057
C       -0.1969516095   -3.4631648663    5.1385263734
N       -0.6219656892   -1.9812148327    2.9486050844
N        2.4805075618    0.2362743766    1.1338355903
N        3.9947228876    1.9904963327    0.9560025373
O        3.2315788921    1.3547332687    3.0297515357
O        0.8866680681   -2.7064734910    4.5580300525
H       -0.0980736381    0.1267472103    0.3528601185
H        2.6650249564   -1.2932084307    3.3674364401
H       -1.8468823252   -1.2593751552    1.4487064201
H        1.1750240557   -4.8590623693    6.0653592404
H        0.7533172422   -3.4680123075    7.0838088337
H       -0.4251125914   -4.7722325623    6.8304540311
H        5.3342064870    3.5763825130    0.7419882188
H        5.8428182558    2.3693442701    1.9586226208
H        4.5142875409    3.4864844267    2.3159566133
H       -1.0085382985   -2.7804117896    5.4084909572
H       -0.5878216546   -4.1634040572    4.3935545595
H        2.2358425388    0.5094258654    0.1879042332
H        4.2441571448    1.5623358564    0.0724259371
27   
Generated by ForceBalance from scan.xyz: Frame 9 of 24
C        0.1048873741   -0.5095379503    1.1847027982
C        1.6350066014   -1.1542323262    2.9320849828
C       -0.8381481571   -1.3368987972    1.7766686337
C        1.3778355225   -0.4092572102    1.7855936483
C        0.5905515570   -1.9440115253    3.4453073439
C        3.2629182886    1.2045786229    1.8400471840
C        0.3855347927   -4.1238471346    6.3714044668
C        5.0691609738    2.8259434010    1.5379295041
C       -0.1764992782   -3.4644848772    5.1242276775
N       -0.6191935373   -2.0498460045    2.8958164877
N        2.3705146985    0.3640454650    1.1498348653
N        3.9682636407    2.0379582337    0.9881403244
O        3.4005697784    1.2082934983    3.0555572278
O        0.8732252684   -2.6420362428    4.5722067044
H       -0.1414916691    0.0502241891    0.2860485800
H        2.5890090190   -1.1175330440    3.4402139095
H       -1.8298308082   -1.4336538215    1.3375116212
H        1.2526875380   -4.7451715883    6.1277913577
H        0.6944051045   -3.3723826575    7.1042334730
H       -0.3785709133   -4.7606767390    6.8294738471
H        5.3727216930    3.5691433028    0.7967262718
H        5.9332086249    2.2069625294    1.8098423218
H        4.7225353012    3.3404585204    2.4345049722
H       -1.0441895775   -2.8371323248    5.3507866343
H       -0.4878329566   -4.2020165630    4.3777596420
H        2.0838998409    0.7180566176    0.2443867235
H        4.0942218640    1.7050253970    0.0397666249
27   
Generated by ForceBalance from scan.xyz: Frame 10 of 24
C        0.1030354822   -0.5391096100    1.1650045495
C        1.5967848029   -1.0514946066    2.9873255635
C       -0.8049257159   -1.4216454143    1.7284948468
C        1.3418481262   -0.3424563452    1.8162714942
C        0.5887807985   -1.9119235443    3.4601946011
C        3.2872489052    1.2252933941    1.8617073988
C        0.4183294524   -4.0867745338    6.3921938731
C        5.1479858356    2.7748647763    1.5177759250
C       -0.1382234349   -3.4720667717    5.1199800901
N       -0.5864552031   -2.1090925609    2.8640945280
N        2.2818980990    0.5035894558    1.2037682412
N        3.9564236917    2.0946651532    1.0150816409
O        3.5437688212    1.1192858846    3.0540276576
O        0.8717988824   -2.5784981668    4.6059165176
H       -0.1421898652   -0.0115379689    0.2465930318
H        2.5193156990   -0.9392052369    3.5387864239
H       -1.7679583803   -1.5900564496    1.2490776036
H        1.3365123816   -4.6453817074    6.1866988174
H        0.6433501234   -3.3137163702    7.1330685077
H       -0.3165512736   -4.7753337618    6.8224535575
H        5.4265192503    3.5608094689    0.8117067276
H        5.9946170070    2.0909322170    1.6560064826
H        4.9161937258    3.2296255198    2.4811933963
H       -1.0568880686   -2.9076289884    5.3080180623
H       -0.3660165329   -4.2318841120    4.3657810115
H        1.9667106415    0.9021673397    0.3277495639
H        3.9745726636    1.8426421251    0.0342317246
27   
Generated by ForceBalance from scan.xyz: Frame 11 of 24
C        0.0989437533   -0.5698695842    1.1444106794
C        1.5448991885   -0.9908574684    3.0278570133
C       -0.7818358660   -1.4966784159    1.6770813906
C        1.3012692357   -0.3037001202    1.8408877817
C        0.5675221550   -1.9061363059    3.4622451038
C        3.3001436204    1.2126237590    1.8730349299
C        0.3972450510   -4.0670050368    6.4044931426
C        5.1929991129    2.7126950409    1.4895449354
C       -0.1388954156   -3.4944770102    5.1040864283
N       -0.5712384010   -2.1696499151    2.8233325899
N        2.1943022977    0.6118105709    1.2650491445
N        3.9271222510    2.1326848591    1.0467125928
O        3.6705624562    0.9808057989    3.0175143440
O        0.8408436683   -2.5504798533    4.6228835832
H       -0.1368609787   -0.0629098741    0.2119870838
H        2.4371815018   -0.8258604343    3.6138064766
H       -1.7147910093   -1.7179007603    1.1610526716
H        1.3529298652   -4.5747978143    6.2429416752
H        0.5477430851   -3.2766291747    7.1460133466
H       -0.3155613740   -4.7921396401    6.8111635821
H        5.4395687233    3.5540151378    0.8374105002
H        6.0152960905    1.9865665743    1.4761603239
H        5.0771276066    3.0775552427    2.5104102216
H       -1.0944734101   -2.9806716760    5.2482638664
H       -0.2926133170   -4.2717867036    4.3489692488
H        1.8530071574    1.0574601777    0.4227898377
H        3.8386736228    1.9804142408    0.0493695629
27   
Generated by ForceBalance from scan.xyz: Frame 12 of 24
C        0.3014611882   -0.4199464533    0.9419716050
C        1.7283028772   -0.6589337828    2.8727204835
C       -0.5894396662   -1.2852730247    1.5544957182
C        1.4994941033   -0.0925919624    1.6205253341
C        0.7396498279   -1.5196454174    3.3863704249
C        3.6095906611    1.2609297238    1.4442765577
C        0.5334268946   -3.3845625499    6.5225320098
C        5.4037503303    2.8675258175    1.0200316684
C        0.0122868443   -2.9403991526    5.1670003294
N       -0.3941445289   -1.8405446104    2.7649452212
N        2.3806007487    0.7896592823    0.9816781260
N        4.1875056936    2.1840457045    0.5861862172
O        4.1507416084    0.8801239955    2.4759539619
O        0.9974242639   -2.0458804738    4.6084975096
H        0.0764010142   -0.0047424261   -0.0373141436
H        2.6271704649   -0.4582357113    3.4369997360
H       -1.5178366852   -1.5535140049    1.0526919172
H        1.4915069438   -3.9033027877    6.4215373728
H        0.6742351950   -2.5265531946    7.1868051885
H       -0.1834486793   -4.0689650607    6.9883471920
H        5.2177071438    3.5801482424    1.8331251096
H        5.8324239495    3.3951465026    0.1646072793
H        6.1199503304    2.1257384425    1.3744511974
H       -0.9451546258   -2.4166045918    5.2500214643
H       -0.1322838570   -3.7869082957    4.4883852845
H        2.1125941727    1.0561311761    0.0432192826
H        3.5578160310    2.7302507736    0.0112590715
27   
Generated by ForceBalance from scan.xyz: Frame 13 of 24
C        0.3049396697   -0.4375763555    0.9312704342
C        1.6637902159   -0.5821524120    2.9187596392
C       -0.5539025360   -1.3561186540    1.5119521469
C        1.4531140888   -0.0371227191    1.6541742337
C        0.7159674321   -1.5078585131    3.3942782237
C        3.5819466451    1.2764234231    1.4574170810
C        0.5119420173   -3.3895735227    6.5206376143
C        5.4398139175    2.7983882445    0.9976623512
C        0.0127971244   -2.9739350941    5.1478987331
N       -0.3699718453   -1.8996188403    2.7293227559
N        2.2898185293    0.9200389011    1.0621188562
N        4.1597694103    2.2097101487    0.6104893218
O        4.1607675704    0.8082922289    2.4303952672
O        0.9593442054   -2.0175287206    4.6264190094
H        0.0940297892   -0.0398058952   -0.0583427803
H        2.5264644516   -0.3279644626    3.5170264699
H       -1.4437251764   -1.6818885879    0.9755189555
H        1.5030984389   -3.8480889411    6.4530657649
H        0.5760764917   -2.5267551497    7.1905028445
H       -0.1774588984   -4.1182821346    6.9599610371
H        5.3488090416    3.4739305226    1.8572681065
H        5.8443768461    3.3476840354    0.1441706752
H        6.1312114128    1.9986190779    1.2643842441
H       -0.9779893601   -2.5113679579    5.1970887992
H       -0.0539817797   -3.8253848982    4.4634593174
H        2.0165700741    1.1956838295    0.1273968174
H        3.5270321221    2.8229359982    0.1111979157
27   
Generated by ForceBalance from scan.xyz: Frame 14 of 24
C        0.3397994216   -0.4492201651    0.9256833358
C        1.6290531696   -0.5084720767    2.9621399345
C       -0.4863038468   -1.4142364124    1.4799360388
C        1.4355119419    0.0166146126    1.6870716491
C        0.7234673360   -1.4892626141    3.4070484289
C        3.5781587856    1.2788546474    1.4412693665
C        0.5048178344   -3.3647681391    6.5360540696
C        5.4772994139    2.7381517514    0.9460729331
C        0.0393999847   -2.9873866358    5.1406628515
N       -0.3134042792   -1.9439741812    2.7044289787
N        2.2291905458    1.0411494185    1.1435737119
N        4.1347887792    2.2551004487    0.6304458830
O        4.2085522059    0.6846163460    2.3062097181
O        0.9496014165   -1.9806424590    4.6498506072
H        0.1446014730   -0.0687405739   -0.0738359451
H        2.4531234881   -0.2033552015    3.5911233575
H       -1.3362172120   -1.7924100937    0.9139892808
H        1.5234676523   -3.7634834503    6.5131537868
H        0.4892518442   -2.4959946940    7.2011263268
H       -0.1576907666   -4.1309964111    6.9523054863
H        5.5031588545    3.3334261179    1.8672646569
H        5.8364909129    3.3440994910    0.1108429861
H        6.1407512570    1.8825034251    1.0743082156
H       -0.9777882623   -2.5832619398    5.1454677575
H        0.0506220561   -3.8454107869    4.4612703080
H        1.9279029646    1.3518465023    0.2279188094
H        3.4959346547    2.9454826914    0.2547412675
27   
Generated by ForceBalance from scan.xyz: Frame 15 of 24
C        0.3864184442   -0.4544201758    0.9276163771
C        1.5725664407   -0.4223227014    3.0252758148
C       -0.4031193126   -1.4689895522    1.4487594277
C        1.4108986972    0.0798696160    1.7379703483
C        0.7184690370   -1.4631353888    3.4320322721
C        3.5569597909    1.2880788005    1.4304047594
C        0.4821378744   -3.3532252171    6.5507478703
C        5.4980267002    2.6693836444    0.8773675231
C        0.0549211641   -3.0039216390    5.1359872605
N       -0.2520450048   -1.9841954169    2.6817704450
N        2.1671184858    1.1655522636    1.2505082654
N        4.1036182642    2.2947804527    0.6522939661
O        4.2157832456    0.5823143614    2.1815756597
O        0.9172870960   -1.9377259079    4.6858597103
H        0.2190893641   -0.0920620022   -0.0834884458
H        2.3409863626   -0.0570828257    3.6929790448
H       -1.2001866707   -1.9024916364    0.8467775893
H        1.5251874511   -3.6829150084    6.5728879269
H        0.3790829450   -2.4893748643    7.2144367688
H       -0.1453197884   -4.1632397160    6.9372836489
H        5.6449366760    3.1826078523    1.8358113867
H        5.8216486199    3.3209524846    0.0621627132
H        6.1115895561    1.7680867269    0.8755623045
H       -0.9860681519   -2.6681372315    5.0951847715
H        0.1535993023   -3.8574855688    4.4581105709
H        1.8303979113    1.5202062339    0.3626687211
H        3.4795755605    3.0502101800    0.3954035680
27   
Generated by ForceBalance from scan.xyz: Frame 16 of 24
C        0.4584501814   -0.4590773038    0.9350488109
C        1.5151735384   -0.3542257497    3.0959122341
C       -0.3003576372   -1.5169702319    1.4179702853
C        1.4006264403    0.1324609037    1.7996843195
C        0.7069710262   -1.4448713050    3.4632090526
C        3.5443694953    1.2793436070    1.3997116891
C        0.4059466048   -3.3410469758    6.5727467107
C        5.5100722874    2.6025294437    0.7932792340
C        0.0382272808   -3.0185183410    5.1351352432
N       -0.1874343346   -2.0199520285    2.6597400233
N        2.1338762270    1.2669988072    1.3739970154
N        4.0765852572    2.3397800561    0.6863158297
O        4.2227812568    0.4468954746    1.9843403320
O        0.8612179089   -1.9043757764    4.7286659332
H        0.3328021194   -0.1109372007   -0.0867246489
H        2.2185949246    0.0653227466    3.8040397555
H       -1.0367166774   -1.9979718204    0.7761120018
H        1.4633692056   -3.6101058149    6.6537607037
H        0.2166693689   -2.4839353799    7.2261242937
H       -0.1943191179   -4.1854611653    6.9274680188
H        5.7922458313    2.9950951413    1.7781652997
H        5.7939820187    3.3208780876    0.0203919468
H        6.0532621537    1.6715722241    0.6289861112
H       -1.0164928766   -2.7432998816    5.0355506830
H        0.2235230101   -3.8653875732    4.4671707003
H        1.7440390983    1.6977843718    0.5424608297
H        3.4833460737    3.1561815150    0.5974109768
27   
Generated by ForceBalance from scan.xyz: Frame 17 of 24
C        0.5721302759   -0.4653798760    0.9627997153
C        1.4775400154   -0.3028710639    3.1877044936
C       -0.1587392885   -1.5632573123    1.3995881368
C        1.4202952827    0.1739043847    1.8862229150
C        0.7101762037   -1.4382393413    3.5067586792
C        3.5357144244    1.2877219976    1.3552370293
C        0.3185786619   -3.3578882031    6.5912768329
C        5.4910393624    2.5781338760    0.6508828839
C        0.0245167334   -3.0507375366    5.1335763195
N       -0.0977955821   -2.0584344572    2.6482510403
N        2.1345322530    1.3504010341    1.5196607212
N        4.0417438201    2.4009328562    0.7061307460
O        4.2237195512    0.3546216376    1.7435182188
O        0.8078963039   -1.8904469805    4.7798507532
H        0.4984736160   -0.1244415702   -0.0661619155
H        2.1054159185    0.1632645985    3.9378617130
H       -0.8253937425   -2.0847028670    0.7146744092
H        1.3821704188   -3.5680254429    6.7385724095
H        0.0408065583   -2.5154550035    7.2319731231
H       -0.2545752646   -4.2359596533    6.9068714868
H        5.9212357889    2.8262870962    1.6291854798
H        5.7204688874    3.3755833952   -0.0601434108
H        5.9476716727    1.6509965258    0.3033521017
H       -1.0354672323   -2.8341353415    4.9675445010
H        0.2989282508   -3.8829688228    4.4780616974
H        1.6748751564    1.8653562964    0.7752880468
H        3.4955204679    3.2494111780    0.7960907355
27   
Generated by ForceBalance from scan.xyz: Frame 18 of 24
C       -0.5806237943    0.1240594409    1.4996816383
C        1.2190863278   -0.2241136563    3.0605494995
C       -1.2369472210   -0.9394119811    2.1060378972
C        0.6759285879    0.4930800588    2.0034877974
C        0.4518965518   -1.2708409867    3.6081264389
C        2.2425402209    1.2803430212    0.3117290212
C        1.0843811580   -3.6348179892    6.3225249905
C        3.8846921724    2.2444169313   -1.2243860249
C        0.2527553932   -3.0456797422    5.1970715110
N       -0.7443035481   -1.6299421129    3.1515761034
N        1.3917573121    1.5762773261    1.3980487927
N        3.0983788445    2.3249055415    0.0042971448
O        2.2226976022    0.2166001102   -0.2915104963
O        1.0019954059   -1.9370547051    4.6523707068
H       -1.0163628737    0.6549960603    0.6605536994
H        2.2036231420   -0.0057254729    3.4627004870
H       -2.2131266530   -1.2596373148    1.7463331706
H        2.0504406301   -3.9886341506    5.9500763323
H        1.2664030227   -2.8915539141    7.1047159608
H        0.5542845965   -4.4828025942    6.7685117413
H        4.6469941044    3.0272760933   -1.2058667402
H        3.2690607371    2.3559635693   -2.1257728338
H        4.3760637832    1.2719409023   -1.2663216035
H       -0.7173160714   -2.6841337231    5.5520725367
H        0.0639342020   -3.7752484626    4.4035874802
H        1.8286631685    2.1879345680    2.0811935028
H        2.7721355459    3.2489742365    0.2611043351
27   
Generated by ForceBalance from scan.xyz: Frame 19 of 24
C       -0.4462605205    0.0578103488    1.4891600279
C        1.2626404842   -0.2585392819    3.1554751536
C       -1.1254744403   -1.0034611839    2.0708381386
C        0.7771477917    0.4455094278    2.0605312788
C        0.4722968438   -1.3024656626    3.6738224511
C        2.1964482639    1.3226773241    0.2753713386
C        0.9680269734   -3.6254339876    6.4516934184
C        3.7403231192    2.3608565462   -1.3132425639
C        0.1975229619   -3.0582907340    5.2726505810
N       -0.6919365097   -1.6777646216    3.1537521692
N        1.5189897354    1.5243787364    1.4981775479
N        3.1176577046    2.3205771276    0.0079065711
O        1.9902020097    0.3711839305   -0.4642852945
O        0.9677509547   -1.9503000901    4.7571748361
H       -0.8374752609    0.5690194983    0.6171745048
H        2.2199301123   -0.0290024292    3.6140436961
H       -2.0759220584   -1.3362718283    1.6576805658
H        1.9567187161   -3.9755474870    6.1399561738
H        1.0989571109   -2.8704705499    7.2329149152
H        0.4202334842   -4.4722400519    6.8781296826
H        4.5845008037    3.0541203535   -1.2831877075
H        3.0399517081    2.6724428273   -2.0982685417
H        4.1080276580    1.3646723187   -1.5605911757
H       -0.7942621855   -2.7010354830    5.5666486061
H        0.0603240454   -3.7998147004    4.4796068043
H        2.0897141838    2.0055885983    2.1864850305
H        2.9313572004    3.2190643217    0.4372644532
27   
Generated by ForceBalance from scan.xyz: Frame 20 of 24
C       -0.2836464075   -0.0198179009    1.4007422719
C        1.3465786564   -0.3197644576    3.1491762804
C       -1.0031534093   -1.0543314610    1.9807792883
C        0.9228719983    0.3640809887    2.0142376524
C        0.5177754264   -1.3374568250    3.6568269739
C        2.2110834582    1.3613440864    0.1717864649
C        0.8485262494   -3.5878818732    6.5182090411
C        3.6557130616    2.5093315684   -1.4347445559
C        0.1406357200   -3.0399404737    5.2916801828
N       -0.6290790505   -1.7095045046    3.0975936887
N        1.7026920334    1.4236113121    1.4869540213
N        3.1827758449    2.3172410635   -0.0658350746
O        1.8380533880    0.5513904111   -0.6649767090
O        0.9558723227   -1.9643365894    4.7773259915
H       -0.6304507408    0.4690890787    0.4988821988
H        2.2835805591   -0.0912667550    3.6490215656
H       -1.9408246679   -1.3810232689    1.5347722754
H        1.8411908890   -3.9682869351    6.2588607693
H        0.9639653176   -2.8129270915    7.2821298262
H        0.2645429643   -4.4096978024    6.9455627342
H        4.5564720761    3.1274460556   -1.4118103687
H        2.9028121706    2.9849486062   -2.0756077167
H        3.9031597141    1.5375647636   -1.8627599265
H       -0.8543729515   -2.6534882310    5.5331905012
H        0.0197759583   -3.8020454461    4.5156808851
H        2.3721916552    1.7882480319    2.1567919354
H        3.1379209185    3.1499359775    0.5092157345
27   
Generated by ForceBalance from scan.xyz: Frame 21 of 24
C       -0.1736819822   -0.1133389817    1.3589695105
C        1.4013614672   -0.3996594105    3.1612830511
C       -0.9321724958   -1.1096863280    1.9560471217
C        1.0304214979    0.2570934381    1.9899063903
C        0.5370870161   -1.3813151364    3.6766220726
C        2.1984336884    1.3902401775    0.1210199065
C        0.7377863629   -3.5433686522    6.6174182402
C        3.5388720395    2.6741808456   -1.4730499961
C        0.0753399455   -3.0192101605    5.3555553075
N       -0.6049048640   -1.7427236648    3.0998933438
N        1.8551574999    1.2821352855    1.4812472760
N        3.2084074589    2.3113088465   -0.0969607630
O        1.6731705979    0.7399750125   -0.7725080260
O        0.9315041029   -1.9831604948    4.8272346270
H       -0.4866800969    0.3500711652    0.4330700429
H        2.3273334267   -0.1758035057    3.6837017676
H       -1.8675067395   -1.4237546503    1.4960904580
H        1.7262160836   -3.9576169752    6.3964711156
H        0.8547653785   -2.7461407577    7.3578430637
H        0.1218944350   -4.3350019817    7.0567866536
H        4.4801905977    3.2289817707   -1.4731764483
H        2.7570360412    3.2815171456   -1.9459144616
H        3.6641948429    1.7631169505   -2.0586933042
H       -0.9147782626   -2.5994988682    5.5585135839
H       -0.0465442552   -3.8039176055    4.6025833216
H        2.5948573086    1.5550045906    2.1188016729
H        3.2963702921    3.0509879379    0.5894034281
27   
Generated by ForceBalance from scan.xyz: Frame 22 of 24
C       -0.0722551664   -0.2211112436    1.3018071865
C        1.4643102464   -0.4894167569    3.1404199304
C       -0.8678512643   -1.1724831012    1.9246035937
C        1.1359419423    0.1350639730    1.9365890929
C        0.5676449558   -1.4299327071    3.6727166564
C        2.2006152682    1.4080109466    0.0718014977
C        0.6620208903   -3.4924675876    6.6896273259
C        3.4456893409    2.8364670541   -1.4757694949
C        0.0322962385   -2.9918930807    5.4016619703
N       -0.5771307234   -1.7783799127    3.0921021068
N        2.0077955416    1.1139142565    1.4293085217
N        3.2412172055    2.2987313993   -0.1328739158
O        1.5401589691    0.9261157846   -0.8397153518
O        0.9281768813   -2.0032204995    4.8490678721
H       -0.3584309288    0.2156134703    0.3556968406
H        2.3844691754   -0.2699247685    3.6751186860
H       -1.8061929849   -1.4722518279    1.4609716528
H        1.6388961899   -3.9460801281    6.4962243721
H        0.7962698937   -2.6739288145    7.4033945247
H        0.0152831345   -4.2478194200    7.1481600431
H        4.4179632243    3.3338208733   -1.5100830673
H        2.6617580028    3.5465645638   -1.7672003660
H        3.4430419160    2.0131628304   -2.1904937844
H       -0.9459696589   -2.5336600311    5.5769629326
H       -0.1062639117   -3.7984168900    4.6751408597
H        2.8025497083    1.3068775965    2.0273087635
H        3.4546142074    2.9272368537    0.6321154152
27   
Generated by ForceBalance from scan.xyz: Frame 23 of 24
C        0.0074032233   -0.3184786844    1.2379469528
C        1.5171789234   -0.5638649969    3.1028445216
C       -0.8190843281   -1.2242437239    1.8892073675
C        1.2207993531    0.0253532934    1.8713029018
C        0.5932376700   -1.4630053647    3.6564941375
C        2.2000473131    1.4302376030    0.0373661669
C        0.5973954931   -3.4103940923    6.7506853398
C        3.3702374533    2.9898156641   -1.4388218805
C       -0.0041438687   -2.9423146675    5.4372441864
N       -0.5566048895   -1.7998686689    3.0778098139
N        2.1382202145    0.9480711637    1.3480618601
N        3.2753131486    2.2809438076   -0.1649237801
O        1.4135568539    1.1253391720   -0.8514334896
O        0.9274401347   -2.0046223846    4.8555728703
H       -0.2588325994    0.0950402686    0.2763305619
H        2.4345101158   -0.3459981322    3.6431911833
H       -1.7618375328   -1.5124660149    1.4270331611
H        1.5613709498   -3.9014282893    6.5860448599
H        0.7504007837   -2.5685672290    7.4329060380
H       -0.0770650467   -4.1264362865    7.2318200004
H        4.3647454651    3.4353094229   -1.5184234631
H        2.6095033351    3.7737581837   -1.5407622891
H        3.2352752252    2.2759640774   -2.2517615006
H       -0.9691459605   -2.4474200237    5.5840438235
H       -0.1612425656   -3.7725519618    4.7418962049
H        2.9737445850    1.0723152186    1.9062841738
H        3.6152798218    2.7840486326    0.6456037454
27   
Generated by ForceBalance from scan.xyz: Frame 24 of 24
C        0.0774840490   -0.4004202189    1.1608880764
C        1.5762099566   -0.6312034845    3.0373960266
C       -0.7796932971   -1.2554285267    1.8408908721
C        1.3015869272   -0.0761403416    1.7844544678
C        0.6249922218   -1.4842346547    3.6160667662
C        2.2109325211    1.4480487218    0.0038097040
C        0.5535564596   -3.3101891409    6.7828287732
C        3.3108839556    3.1470932493   -1.3700623939
C       -0.0254623780   -2.8772988806    5.4473746027
N       -0.5354570186   -1.8018369639    3.0468717028
N        2.2596346013    0.7812748802    1.2283249856
N        3.3027730480    2.2786216784   -0.1954195944
O        1.3263680426    1.2989273153   -0.8319495523
O        0.9405862407   -1.9973112593    4.8326798107
H       -0.1761125716   -0.0033783877    0.1890955324
H        2.4974732780   -0.4217320394    3.5744012214
H       -1.7317785647   -1.5261296613    1.3871925890
H        1.5011977039   -3.8397510695    6.6449335339
H        0.7315396612   -2.4461749602    7.4303798528
H       -0.1470792437   -3.9824502993    7.2890672626
H        4.3131128185    3.5659345164   -1.4883786504
H        2.5807139208    3.9624286282   -1.2949048293
H        3.0685341349    2.5527657180   -2.2514248223
H       -0.9735614610   -2.3441558418    5.5675111910
H       -0.2077179960   -3.7301936290    4.7863636996
H        3.1136296516    0.8719344998    1.7637777074
H        3.7498525334    2.6537363145    0.6320969946
