22   
Generated by ForceBalance from scan.xyz: Frame 1 of 24
C        1.6462684616   -1.4977836497   -0.0007764667
C        3.0112761727   -1.2496857391    1.9601807666
C        0.5691127922   -0.9169799194    0.6603218193
C        1.9421207811   -0.6628353360    2.6361150061
C        5.1827252526   -2.7607384863    0.5747058651
C        4.0883096869   -2.3453574811   -1.4989607616
C        6.2541927984   -3.2764137150   -0.1545775971
C        5.2078113275   -2.8819451340   -2.1356478481
C        2.8916381802   -1.6893961596    0.6301552854
C        4.0437204550   -2.2774447623   -0.0946427826
C        0.7123859092   -0.4950233132    1.9879306286
N        6.2891162473   -3.3475982135   -1.4934397045
O       -0.3775980214    0.0735825752    2.5946234547
H        1.4964014024   -1.8350759418   -1.0212348423
H        3.9591181445   -1.3366201326    2.4810163072
H       -0.3892765503   -0.7872911570    0.1665690390
H        2.0703638637   -0.3255874419    3.6634698545
H        5.2384810400   -2.7715104609    1.6583131440
H        3.2760957537   -1.9642058986   -2.1088766672
H        7.1312984000   -3.6561027000    0.3679506537
H        5.2388133049   -2.9318565953   -3.2233135178
H       -0.1467377975    0.3149438297    3.5058207447
22   
Generated by ForceBalance from scan.xyz: Frame 2 of 24
C        1.6232555752   -1.6164633238    0.0386926391
C        3.0546812494   -1.1193283140    1.9081973286
C        0.5382626040   -1.0560044859    0.7058302793
C        1.9777976299   -0.5489575516    2.5872342440
C        5.1152376694   -2.8777820985    0.5779256372
C        4.1534280283   -2.2036660689   -1.4998586480
C        6.1835245492   -3.4045087762   -0.1492117371
C        5.2635698190   -2.7639438119   -2.1334479111
C        2.9030800348   -1.6663506494    0.6233340351
C        4.0533133174   -2.2540075447   -0.0990114350
C        0.7127384787   -0.5173101899    1.9870531843
N        6.2762056726   -3.3601874825   -1.4866686573
O       -0.3872167288    0.0261236905    2.6003631413
H        1.4630479423   -2.0520613723   -0.9433115817
H        4.0335988018   -1.1075960471    2.3784090087
H       -0.4494965701   -1.0340523136    0.2552618453
H        2.1255678518   -0.1198462342    3.5770471381
H        5.1027385933   -2.9840458197    1.6586814512
H        3.3926506711   -1.7093992090   -2.0966423861
H        7.0053759862   -3.8946319950    0.3712144587
H        5.3470016005   -2.7233192587   -3.2187358933
H       -0.1341359659    0.3545076687    3.4777766710
22   
Generated by ForceBalance from scan.xyz: Frame 3 of 24
C        1.6167945886   -1.7136218668    0.0836449975
C        3.0853584709   -0.9887171220    1.8511790784
C        0.5221934564   -1.1835560293    0.7615827064
C        1.9982565070   -0.4463247520    2.5382583570
C        5.0443200666   -2.9721418243    0.5666227710
C        4.2269406621   -2.0767578723   -1.4930286822
C        6.1025798572   -3.5258161263   -0.1566003445
C        5.3201746391   -2.6737930859   -2.1236744829
C        2.9179191527   -1.6232799967    0.6106741580
C        4.0706294018   -2.2154296260   -0.1046629290
C        0.7115239804   -0.5439983746    1.9934521302
N        6.2556349645   -3.3902411694   -1.4823446938
O       -0.3993907950   -0.0358455874    2.6187295255
H        1.4566821335   -2.2267423242   -0.8607729821
H        4.0813423732   -0.8926848477    2.2750642225
H       -0.4830598753   -1.2638692226    0.3587899489
H        2.1530778378    0.0562908912    3.4917616284
H        4.9695169500   -3.1473466139    1.6362573800
H        3.5199105904   -1.4914249425   -2.0744000448
H        6.8610286187   -4.1173534819    0.3546608231
H        5.4544493605   -2.5654673366   -3.1991798239
H       -0.1344510008    0.3714391737    3.4587132177
22   
Generated by ForceBalance from scan.xyz: Frame 4 of 24
C        1.6129989767   -1.8300563593    0.1466564366
C        3.0996143828   -0.8645339383    1.7796590023
C        0.5119457533   -1.3220966582    0.8328364212
C        2.0053483784   -0.3427011002    2.4731277017
C        4.9655807569   -3.0728418103    0.5368471349
C        4.3105594495   -1.9556792749   -1.4734722106
C        6.0193605350   -3.6380130276   -0.1855614185
C        5.3927589642   -2.5734679001   -2.1049005636
C        2.9237266215   -1.6014777138    0.5998044867
C        4.0838428986   -2.1941027451   -0.1098412170
C        0.7074368660   -0.5715157162    1.9991799579
N        6.2457120438   -3.4034486653   -1.4864954682
O       -0.4102344678   -0.0906644193    2.6354472377
H        1.4548921817   -2.4246785151   -0.7492886865
H        4.1042864560   -0.6795891751    2.1508913525
H       -0.5011431499   -1.5037999953    0.4865345415
H        2.1632200495    0.2411496473    3.3786658724
H        4.8260526731   -3.3220004720    1.5852797117
H        3.6627304355   -1.2849608896   -2.0314666025
H        6.7107409220   -4.3226212613    0.3041573186
H        5.5859010284   -2.3894549171   -3.1609686248
H       -0.1392816301    0.4042504602    3.4248784235
22   
Generated by ForceBalance from scan.xyz: Frame 5 of 24
C        1.6081628915   -1.9691593922    0.2450877666
C        3.1047146543   -0.7526533261    1.6904770724
C        0.5093904211   -1.4558168709    0.9325513177
C        2.0119469986   -0.2265111985    2.3849919652
C        4.8720420492   -3.2074088437    0.4810788324
C        4.4077729528   -1.8334024037   -1.4200480564
C        5.9343314486   -3.7563273368   -0.2426289722
C        5.4899979262   -2.4447004931   -2.0593333596
C        2.9197646575   -1.6190038497    0.6051453802
C        4.0846669859   -2.2092100393   -0.1090477425
C        0.7109614388   -0.5782874091    2.0052128033
N        6.2524362748   -3.3917663052   -1.4934221623
O       -0.4047899297   -0.0990459691    2.6474050874
H        1.4477504671   -2.6561014711   -0.5818088386
H        4.1123416783   -0.4771340931    1.9906659022
H       -0.5052973587   -1.7272337756    0.6567040532
H        2.1744933664    0.4542829919    3.2192350818
H        4.6575352468   -3.5545153477    1.4881538296
H        3.8296477206   -1.0690303894   -1.9321559655
H        6.5554157829   -4.5325724213    0.2026807389
H        5.7576710201   -2.1580565678   -3.0755766870
H       -0.1290778275    0.4916270393    3.3661361940
22   
Generated by ForceBalance from scan.xyz: Frame 6 of 24
C        1.6030063157   -2.1291449719    0.3794765574
C        3.0923744689   -0.6562469236    1.5721439775
C        0.5105858108   -1.5919047008    1.0595282649
C        2.0059185825   -0.1090151505    2.2609283015
C        4.7668223466   -3.3596614117    0.3903665226
C        4.5099618047   -1.7121080025   -1.3231239019
C        5.8497469026   -3.8664131552   -0.3342802378
C        5.6044350930   -2.2929905538   -1.9706227730
C        2.9071582061   -1.6709643479    0.6247394975
C        4.0690483797   -2.2513874201   -0.1074453258
C        0.7119896562   -0.5779283466    2.0040475608
N        6.2751556849   -3.3533631418   -1.4977260277
O       -0.3974611722   -0.0830871656    2.6458610389
H        1.4424031494   -2.9160136604   -0.3529538146
H        4.0947881099   -0.2886229838    1.7752728235
H       -0.4991761143   -1.9446668104    0.8716508451
H        2.1683821764    0.6793628408    2.9943999721
H        4.4705406370   -3.8209998360    1.3284749132
H        4.0077096320   -0.8526389707   -1.7586863790
H        6.4023242683   -4.7274775340    0.0395540969
H        5.9592183571   -1.8853184034   -2.9163773479
H       -0.1224612999    0.6081186512    3.2688100025
22   
Generated by ForceBalance from scan.xyz: Frame 7 of 24
C        1.6139813303   -2.2618801745    0.5326681235
C        3.0628375286   -0.5664996051    1.4465089808
C        0.5249601578   -1.7089949230    1.2050321646
C        1.9807457226   -0.0054936881    2.1301621559
C        4.6539055529   -3.4820767527    0.2836861116
C        4.6072235212   -1.6061004348   -1.1988024442
C        5.7519552311   -3.9571168024   -0.4390715239
C        5.7081288661   -2.1651770148   -1.8537254675
C        2.8989659905   -1.7078068201    0.6503979461
C        4.0489219474   -2.2783641227   -0.1028449837
C        0.7084461547   -0.5777948405    2.0098382653
N        6.2834264833   -3.3217417680   -1.4936095492
O       -0.3959051590   -0.0735524068    2.6526280009
H        1.4654211953   -3.1353236966   -0.0970207717
H        4.0478034789   -0.1172009736    1.5425910984
H       -0.4696510382   -2.1352434616    1.1135337888
H        2.1291640540    0.8749971805    2.7535248777
H        4.2769072690   -4.0391658127    1.1370998398
H        4.1839964828   -0.6660792439   -1.5422842392
H        6.2326181516   -4.8912311026   -0.1511457785
H        6.1486651572   -1.6583109797   -2.7113766335
H       -0.1350271317    0.7045153909    3.1703537482
22   
Generated by ForceBalance from scan.xyz: Frame 8 of 24
C        1.6558583977   -2.3484478589    0.6645540447
C        3.0291235878   -0.4810608986    1.3262457498
C        0.5669602748   -1.8007131242    1.3395127993
C        1.9478892814    0.0749831691    2.0135746307
C        4.5510248974   -3.5527645233    0.1745442021
C        4.7082079821   -1.5331564281   -1.0951593822
C        5.6490389884   -4.0279800851   -0.5467106766
C        5.8005028816   -2.0987647033   -1.7575415575
C        2.9060979047   -1.7064030934    0.6557515769
C        4.0467000866   -2.2738971385   -0.1045715189
C        0.7129142660   -0.5856299304    2.0208051676
N        6.2768437278   -3.3261034565   -1.5017776978
O       -0.3892033281   -0.0908997972    2.6734170421
H        1.5333354540   -3.2844885645    0.1257537334
H        3.9858551088    0.0345720965    1.3287978753
H       -0.4007933045   -2.2933599934    1.3420755506
H        2.0675401699    1.0190128334    2.5430158382
H        4.0999425478   -4.1660913927    0.9499056933
H        4.3653863884   -0.5364953539   -1.3595251886
H        6.0507753022   -5.0189674823   -0.3392998573
H        6.3167626234   -1.5379924444   -2.5357140740
H       -0.1575477089    0.7509505245    3.0967148474
22   
Generated by ForceBalance from scan.xyz: Frame 9 of 24
C        3.0436844116   -0.2596376152    1.0881636781
C        1.7901711564   -2.3106729609    0.9249508649
C        2.0013579975    0.3346870214    1.7945373535
C        0.7344407577   -1.7251744939    1.6255981307
C        4.7633585709   -1.5435601537   -1.1195208815
C        4.5023613783   -3.5280656048    0.1861465242
C        5.8071625001   -2.1860287000   -1.7881706874
C        5.5557595881   -4.0817916921   -0.5441858726
C        2.9581036687   -1.5886392395    0.6351598499
C        4.0828642227   -2.2176368550   -0.0929552583
C        0.8385205284   -0.3987429553    2.0635201604
N        6.2121536282   -3.4364288334   -1.5198046309
O       -0.1609814802    0.2337797516    2.7594396901
H        3.9499769505    0.3107102708    0.9028370184
H        1.6909429122   -3.3347437580    0.5754226882
H        2.0737575763    1.3574110683    2.1523329682
H       -0.1698218583   -2.2982462657    1.8247132115
H        4.4723468875   -0.5376896005   -1.4094457360
H        4.0328170169   -4.1030334442    0.9794750775
H        6.3391883350   -1.6724776989   -2.5879608252
H        5.8939151372   -5.0947173918   -0.3293497686
H       -0.9011333754   -0.3811618433    2.8845993324
22   
Generated by ForceBalance from scan.xyz: Frame 10 of 24
C        2.9854674114   -0.2308143707    0.9787338169
C        1.8352702715   -2.3443634909    1.0388523353
C        1.9413063301    0.3707463910    1.6746159655
C        0.7782041772   -1.7541807173    1.7318434576
C        4.8473320815   -1.5071626718   -1.0228330150
C        4.4218378424   -3.5766353908    0.0867778259
C        5.8914255287   -2.1439140426   -1.6953295990
C        5.4828857714   -4.1203025641   -0.6385800849
C        2.9607235023   -1.5994800019    0.6494684202
C        4.0718799317   -2.2282647347   -0.0989302222
C        0.8293941725   -0.3920804370    2.0539602234
N        6.2213887775   -3.4323481696   -1.5219994401
O       -0.1742861436    0.2482190763    2.7350698192
H        3.8508382061    0.3704900365    0.7156973137
H        1.7635907862   -3.3949014355    0.7726538989
H        1.9733096692    1.4234998621    1.9389608430
H       -0.0887710240   -2.3510052232    2.0108654561
H        4.6269103133   -0.4673942676   -1.2453412859
H        3.8969562621   -4.1956890613    0.8084074783
H        6.4900535968   -1.5898602519   -2.4171985559
H        5.7598820327   -5.1638631671   -0.4946899528
H       -0.8760234928   -0.3889321407    2.9432582853
22   
Generated by ForceBalance from scan.xyz: Frame 11 of 24
C        2.9105013400   -0.2053391654    0.8638685670
C        1.8926905851   -2.3607932937    1.1549144936
C        1.8626072378    0.3962099438    1.5530568171
C        0.8333087223   -1.7731079551    1.8452687481
C        4.9425953453   -1.4821211959   -0.9168363007
C        4.3380229262   -3.6064778409   -0.0268964900
C        5.9830484357   -2.1214564904   -1.5915888880
C        5.4039785273   -4.1507599390   -0.7434421008
C        2.9630426999   -1.5980273687    0.6557214667
C        4.0677750422   -2.2281565445   -0.1064531083
C        0.8144264751   -0.3881061854    2.0502527088
N        6.2299954551   -3.4377749274   -1.5231755625
O       -0.1954182291    0.2521410557    2.7209554462
H        3.7181418239    0.4277659484    0.5114923280
H        1.8609007796   -3.4322011748    0.9858596191
H        1.8424952679    1.4690907997    1.7193181661
H        0.0167219614   -2.3923230670    2.2132012563
H        4.8097334419   -0.4147403253   -1.0583409346
H        3.7466290570   -4.2619259136    0.6040675261
H        6.6531277921   -1.5415412271   -2.2249320732
H        5.6095140227   -5.2185284741   -0.6793300424
H       -0.8499306058   -0.4019126568    3.0136210513
22   
Generated by ForceBalance from scan.xyz: Frame 12 of 24
C        2.8101254327   -0.1947401523    0.7046296138
C        1.9785206074   -2.3652276964    1.2933279030
C        1.7608465801    0.4076031458    1.3903399591
C        0.9199311448   -1.7789632351    1.9854400676
C        5.0622061116   -1.4714732815   -0.7672933147
C        4.2369855846   -3.6235770420   -0.1832858568
C        6.0998757787   -2.1119449096   -1.4446448755
C        5.3113378013   -4.1679568792   -0.8866092025
C        2.9534433762   -1.5954365869    0.6334874918
C        4.0787857550   -2.2272881280   -0.1021222761
C        0.8052792379   -0.3847464724    2.0376852895
N        6.2455363729   -3.4427617221   -1.5186005416
O       -0.2095363381    0.2556397571    2.6997575205
H        3.5283975999    0.4548214348    0.2171166981
H        2.0296842444   -3.4480948526    1.2779204383
H        1.6669870588    1.4885245869    1.4341653928
H        0.1845747045   -2.4085854700    2.4839172767
H        5.0414308396   -0.3875738704   -0.7719679109
H        3.5394291835   -4.3047604687    0.2909636818
H        6.8563598276   -1.5184981352   -1.9565097758
H        5.4254383269   -5.2497212040   -0.9438686357
H       -0.7964508881   -0.4048374075    3.1012510585
22   
Generated by ForceBalance from scan.xyz: Frame 13 of 24
C        2.6984731550   -0.2102056676    0.5536200137
C        2.0672052803   -2.3564310284    1.4281744953
C        1.6463669944    0.3909953384    1.2365890582
C        1.0097426048   -1.7691007729    2.1216850790
C        5.1478769257   -1.4749758776   -0.5963326993
C        4.1285396539   -3.6109680030   -0.3345752963
C        6.1850180560   -2.1133135783   -1.2771078024
C        5.2123691872   -4.1538788977   -1.0248066971
C        2.9318726347   -1.5982972384    0.6191647342
C        4.0734273087   -2.2269737228   -0.0879093280
C        0.7929208859   -0.3890257839    2.0266984267
N        6.2399783422   -3.4346063002   -1.4996201797
O       -0.2276639948    0.2509323414    2.6811174036
H        3.3276959935    0.4182689040   -0.0680375305
H        2.2268157687   -3.4230413908    1.5476780980
H        1.4686099788    1.4598738593    1.1656067530
H        0.3624085142   -2.3839517938    2.7450375295
H        5.2085995896   -0.4024809611   -0.4443787565
H        3.3285886569   -4.2727580927   -0.0191544664
H        7.0193177152   -1.5282869625   -1.6619940622
H        5.2512806463   -5.2259882770   -1.2133866841
H       -0.7429313498   -0.3998724942    3.1838937895
22   
Generated by ForceBalance from scan.xyz: Frame 14 of 24
C        2.6212286433   -0.2393431269    0.4398547958
C        2.1524401054   -2.3351947797    1.5257944224
C        1.5640360175    0.3608448861    1.1170364484
C        1.0930818280   -1.7460540509    2.2162061879
C        5.2104713468   -1.4957666651   -0.4661987721
C        4.0560947511   -3.5844818527   -0.4574678808
C        6.2460943901   -2.1330463769   -1.1511481292
C        5.1455146902   -4.1278385315   -1.1397112489
C        2.9372051407   -1.5990907393    0.6227739965
C        4.0693048241   -2.2268258495   -0.0945114726
C        0.7939515110   -0.3931401033    2.0118177525
N        6.2355405316   -3.4302068178   -1.4922273706
O       -0.2343847543    0.2460675431    2.6562472170
H        3.1904326339    0.3548738063   -0.2690462183
H        2.3868064232   -3.3777488457    1.7201296062
H        1.3159551940    1.4062836917    0.9599341478
H        0.5085499081   -2.3361520080    2.9203382800
H        5.3131170584   -0.4476870229   -0.2011953232
H        3.1968786712   -4.2121325275   -0.2400576535
H        7.1352323124   -1.5714592701   -1.4348285469
H        5.1372854163   -5.1787172554   -1.4261722854
H       -0.6888801950   -0.3848806770    3.2368309632
22   
Generated by ForceBalance from scan.xyz: Frame 15 of 24
C        2.5380099296   -0.2729873751    0.3500110930
C        2.2368137902   -2.3008196693    1.6157502261
C        1.4722571038    0.3187616248    1.0228220187
C        1.1712578871   -1.7177355247    2.3033669845
C        5.2623873571   -1.5266960765   -0.3471505527
C        3.9917619412   -3.5387685695   -0.5689870492
C        6.2951734613   -2.1674537142   -1.0343480706
C        5.0835966790   -4.0892845209   -1.2430614697
C        2.9448647344   -1.5890574534    0.6351917487
C        4.0637080206   -2.2161028502   -0.1036658272
C        0.7856676631   -0.4041803548    2.0068676720
N        6.2266309901   -3.4296964795   -1.4832635197
O       -0.2544644391    0.2254324606    2.6433132739
H        3.0509243679    0.2885079725   -0.4262960693
H        2.5379235362   -3.3143959393    1.8662731538
H        1.1531836667    1.3311880037    0.7938943176
H        0.6465749227   -2.2822883512    3.0726152749
H        5.3990473121   -0.5099048182    0.0105864981
H        3.0881403173   -4.1261929286   -0.4316006295
H        7.2300296941   -1.6421116440   -1.2254253232
H        5.0344534503   -5.1118717808   -1.6150990420
H       -0.6458860031   -0.3811952079    3.2917239592
22   
Generated by ForceBalance from scan.xyz: Frame 16 of 24
C        2.4475187893   -0.3175820681    0.2575584682
C        2.3326179629   -2.2457332220    1.6993099891
C        1.3721844466    0.2626413826    0.9270591960
C        1.2590464622   -1.6720529602    2.3841660893
C        5.3196989566   -1.5775355873   -0.2259728192
C        3.9378802871   -3.4737302449   -0.6886005302
C        6.3472486691   -2.2284338861   -0.9130227761
C        5.0289640856   -4.0395309871   -1.3527627246
C        2.9535904292   -1.5725885020    0.6375236835
C        4.0685441110   -2.2016269964   -0.1121133284
C        0.7764984122   -0.4150928418    1.9983268029
N        6.2226443346   -3.4402903226   -1.4741469536
O       -0.2771995976    0.2003765171    2.6277802355
H        2.8972392172    0.2059920587   -0.5821350445
H        2.7047358907   -3.2191397982    2.0079251847
H        0.9776683614    1.2297682524    0.6298905911
H        0.8005599845   -2.2023923293    3.2174238571
H        5.4932575771   -0.6029250435    0.2222281193
H        2.9931703658   -4.0081638035   -0.6368623340
H        7.3240198321   -1.7559045484   -1.0083780055
H        4.9378476169   -5.0225505715   -1.8131134664
H       -0.5988001935   -0.3710245953    3.3430599598
22   
Generated by ForceBalance from scan.xyz: Frame 17 of 24
C        2.3434300068   -0.3945226470    0.1600565370
C        2.4316568939   -2.1732321206    1.7841720037
C        1.2648911851    0.1796142046    0.8314565022
C        1.3544071475   -1.6051846781    2.4697298509
C        5.3656427494   -1.6570532688   -0.0889001591
C        3.8974539584   -3.3935404557   -0.8290502021
C        6.3932865496   -2.3060337932   -0.7791841389
C        4.9917379495   -3.9646775617   -1.4847708592
C        2.9494790520   -1.5709871966    0.6299484513
C        4.0740072391   -2.2006198191   -0.1146564049
C        0.7693879719   -0.4257124664    1.9929810410
N        6.2267374552   -3.4424372625   -1.4713352139
O       -0.2927045313    0.1811366944    2.6180618629
H        2.7198566631    0.0744232681   -0.7454093534
H        2.8808931407   -3.0895511455    2.1580850587
H        0.7939170298    1.0883285591    0.4684984642
H        0.9723643462   -2.0810615948    3.3716487948
H        5.5680299062   -0.7434567749    0.4635080817
H        2.9196871595   -3.8646753221   -0.8814333434
H        7.4022347327   -1.8956529127   -0.7689528297
H        4.8688066928   -4.8877073712   -2.0499632913
H       -0.5379887231   -0.3354565665    3.4019330707
22   
Generated by ForceBalance from scan.xyz: Frame 18 of 24
C        2.2246396871   -0.5269296964    0.0602262641
C        2.5262120183   -2.0832459528    1.8753597844
C        1.1541294542    0.0636412338    0.7309149043
C        1.4547677933   -1.5003012252    2.5583748302
C        5.3817593217   -1.7753076857    0.0700791377
C        3.8756637936   -3.3003127136   -0.9899270535
C        6.4189136497   -2.3953231619   -0.6331825800
C        4.9807581141   -3.8514299953   -1.6453322999
C        2.9253711714   -1.6067739977    0.6203166785
C        4.0687427905   -2.2319432822   -0.1042358884
C        0.7667148714   -0.4242266432    1.9849860549
N        6.2390594687   -3.4183335200   -1.4810222646
O       -0.2938313026    0.1928412430    2.6032391442
H        2.5219092696   -0.1448230182   -0.9129243280
H        3.0567263756   -2.9182951859    2.3253303277
H        0.6107218475    0.8989944579    0.2993639434
H        1.1582643533   -1.8840591844    3.5334229504
H        5.5927470124   -0.9489684468    0.7433729850
H        2.8793393977   -3.6964507634   -1.1662274141
H        7.4451214435   -2.0520218798   -0.5084535397
H        4.8473462794   -4.6824299131   -2.3368155800
H       -0.4583343234   -0.2375516617    3.4571435253
22   
Generated by ForceBalance from scan.xyz: Frame 19 of 24
C        2.0978762046   -0.6844496976   -0.0030099376
C        2.6104908588   -1.9857997492    1.9586376018
C        1.0398464366   -0.0710822085    0.6661234990
C        1.5495987354   -1.3829851767    2.6402073806
C        5.3662889221   -1.9130981797    0.2231704248
C        3.8605731208   -3.1838234619   -1.1320772886
C        6.4158852015   -2.4893074472   -0.4978181985
C        4.9780556284   -3.7017523920   -1.7928915971
C        2.8922345151   -1.6568399523    0.6263472325
C        4.0464480026   -2.2699616704   -0.0858226508
C        0.7617853865   -0.4235648704    1.9926658049
N        6.2426316569   -3.3718250214   -1.4925742303
O       -0.2926424588    0.2078799982    2.6062052289
H        2.3153760427   -0.4022680044   -1.0298560776
H        3.2193691012   -2.7287554147    2.4671643902
H        0.4265000035    0.6823232316    0.1807876493
H        1.3388588794   -1.6598385602    3.6721011389
H        5.5722692225   -1.1937217524    1.0110800521
H        2.8601676378   -3.4939244171   -1.4215988044
H        7.4468737708   -2.2223563518   -0.2690070009
H        4.8500143263   -4.4183823378   -2.6031770717
H       -0.3758607227   -0.1219814634    3.5149128311
22   
Generated by ForceBalance from scan.xyz: Frame 20 of 24
C        1.9990094836   -0.8172095916   -0.0469442548
C        2.6975678813   -1.8782793438    2.0010443596
C        0.9419364676   -0.2018639860    0.6202734341
C        1.6372954348   -1.2740392584    2.6803475410
C        5.3595400791   -2.0419035499    0.3304609557
C        3.8653660092   -3.0575642586   -1.2367588499
C        6.4138045993   -2.6005708168   -0.3962508174
C        4.9877731543   -3.5680560769   -1.8933585811
C        2.8869956152   -1.6732872603    0.6269701743
C        4.0402401002   -2.2786275364   -0.0833462718
C        0.7560528756   -0.4330565330    1.9892073316
N        6.2499884025   -3.3548489226   -1.4930778798
O       -0.3027206665    0.1943243356    2.5981118000
H        2.1470850882   -0.6220721279   -1.1058492339
H        3.3749750692   -2.5329018793    2.5432270433
H        0.2595410986    0.4646207663    0.1012388257
H        1.4972292363   -1.4587865487    3.7443168128
H        5.5625264019   -1.4218536983    1.1994239256
H        2.8680845067   -3.2768987745   -1.6085423697
H        7.4431642294   -2.4239974432   -0.0867939129
H        4.8661452764   -4.1823257704   -2.7846113859
H       -0.3159145943   -0.0435214533    3.5387555041
22   
Generated by ForceBalance from scan.xyz: Frame 21 of 24
C        1.9207705318   -0.9174934751   -0.0693354641
C        2.7766251894   -1.7597808917    2.0188942248
C        0.8539548328   -0.3209163965    0.5976130589
C        1.7085810907   -1.1733023042    2.6996788637
C        5.3567147343   -2.1580118418    0.4036947820
C        3.8821933298   -2.9283949999   -1.3114126063
C        6.4072421324   -2.7288598583   -0.3175998802
C        5.0002575140   -3.4609860858   -1.9562178024
C        2.8992886721   -1.6517180957    0.6250525268
C        4.0457831605   -2.2568744035   -0.0893308880
C        0.7429442299   -0.4499681832    1.9881031403
N        6.2523358105   -3.3748668260   -1.4827643788
O       -0.3291295411    0.1541296012    2.5956410620
H        2.0089842530   -0.7925201825   -1.1451817855
H        3.5106884746   -2.3326466919    2.5791213944
H        0.1056533472    0.2548644334    0.0612154123
H        1.6248285644   -1.2841645947    3.7797076837
H        5.5619899699   -1.6243467382    1.3275367353
H        2.8943488312   -3.0570331819   -1.7451923496
H        7.4278522230   -2.6541498981    0.0555807303
H        4.8825554838   -3.9904875295   -2.9007621654
H       -0.2846540346   -0.0038058939    3.5520534099
22   
Generated by ForceBalance from scan.xyz: Frame 22 of 24
C        1.8593103593   -1.0044681601   -0.0812170911
C        2.8487421930   -1.6338372155    2.0202005564
C        0.7767829877   -0.4380899641    0.5849235268
C        1.7673136839   -1.0753130327    2.7018526487
C        5.3518008179   -2.2652063747    0.4567896928
C        3.9141240446   -2.8009917424   -1.3713361653
C        6.3917253398   -2.8632439977   -0.2562167294
C        5.0200649213   -3.3717054168   -2.0029943610
C        2.9210143090   -1.6100323733    0.6175958726
C        4.0624828594   -2.2195564287   -0.1005600980
C        0.7263761955   -0.4725962574    1.9843601867
N        6.2506654263   -3.4140266807   -1.4710868818
O       -0.3633100572    0.0964349199    2.5927650486
H        1.8931612246   -0.9452946301   -1.1652285343
H        3.6310901542   -2.1225133998    2.5934690074
H       -0.0316016725    0.0405925485    0.0403679764
H        1.7295495018   -1.1191285073    3.7892112211
H        5.5588757209   -1.8138628605    1.4226482841
H        2.9442965941   -2.8387058432   -1.8584175847
H        7.3938630944   -2.8947636636    0.1694602134
H        4.9082693902   -3.8271125500   -2.9861205163
H       -0.2721254992    0.0120951235    3.5552152319
22   
Generated by ForceBalance from scan.xyz: Frame 23 of 24
C        1.7967346816   -1.1148849100   -0.0796979774
C        2.9120301535   -1.5022568729    2.0122447189
C        0.7056120997   -0.5696222892    0.5887233299
C        1.8248775315   -0.9611961820    2.6976096863
C        5.3278776835   -2.3913528792    0.4985737574
C        3.9624438368   -2.6656663718   -1.4329334000
C        6.3627742937   -3.0000682832   -0.2115473695
C        5.0592465940   -3.2599981524   -2.0577322764
C        2.9319782426   -1.5867420606    0.6090020275
C        4.0748291939   -2.1982812960   -0.1109538434
C        0.7145269223   -0.4895733722    1.9868044500
N        6.2542268245   -3.4363671684   -1.4751528027
O       -0.3854701960    0.0535541465    2.5987458229
H        1.7689039190   -1.1416244196   -1.1641664073
H        3.7428798273   -1.8869120834    2.5944478314
H       -0.1574719096   -0.1974018597    0.0449785421
H        1.8376247916   -0.9178557232    3.7855431301
H        5.5229840369   -2.0475210442    1.5090896698
H        3.0269768279   -2.5981645325   -1.9781947402
H        7.3336016135   -3.1412591469    0.2618156919
H        4.9678103806   -3.6214763998   -3.0811782266
H       -0.2493214208    0.0538893748    3.5596284358
22   
Generated by ForceBalance from scan.xyz: Frame 24 of 24
C        1.7106753616   -1.3032547872   -0.0454142189
C        2.9595903862   -1.3722796402    2.0005789961
C        0.6269114516   -0.7402427866    0.6197705360
C        1.8830024126   -0.8084827696    2.6835293341
C        5.2616544628   -2.5765104774    0.5467162012
C        4.0241910243   -2.5083845320   -1.4822002973
C        6.3138499327   -3.1387899171   -0.1757693368
C        5.1316476281   -3.0737699338   -2.1143943323
C        2.9080399896   -1.6365986674    0.6200282823
C        4.0590988678   -2.2375814514   -0.1015221153
C        0.7071476866   -0.4884041503    1.9945802297
N        6.2748051634   -3.3945497233   -1.4914787757
O       -0.3870240502    0.0672185920    2.6048107946
H        1.6073956484   -1.4820653836   -1.1097819662
H        3.8509486612   -1.6046641690    2.5723888659
H       -0.2874725265   -0.4900324914    0.0902304465
H        1.9605395063   -0.6185638061    3.7528987514
H        5.4020258959   -2.4127702599    1.6092567692
H        3.1495313053   -2.2887315733   -2.0838641268
H        7.2405702808   -3.3976996388    0.3347854430
H        5.0950213193   -3.2796604752   -3.1833755612
H       -0.1992093749    0.1890907910    3.5491449790
