18   
Generated by ForceBalance from scan.xyz: Frame 1 of 24
C        1.0658767485    0.2820889126    1.7169873373
C       -0.7465260915   -1.2931649323    1.5690038253
C        0.4200234803   -1.1409575666    3.5718074974
C        0.0391495675   -0.2979115218    0.9500877408
C        1.2329591527   -0.1421293697    3.0299819711
C       -1.2281289785   -0.0489925878   -1.2053479404
C       -1.1242189837    0.6302618087   -2.5608254118
N       -0.5599428534   -1.6815077816    2.8369101975
N       -0.1376161037    0.1540890398   -0.3729021206
O       -2.1925309254   -0.7345871016   -0.8931137033
I        3.2579787547    0.2550367440    4.0077421553
H        1.7098327901    1.0454729851    1.2881725971
H       -1.5439768859   -1.7770872815    1.0190377258
H        0.5428696295   -1.4936573497    4.5922292063
H       -1.0084880214   -0.1402862885   -3.3287614491
H       -0.2938738431    1.3369564617   -2.6446022485
H       -2.0631332527    1.1520885085   -2.7580365403
H        0.5808915685    0.7784456142   -0.7166017142
18   
Generated by ForceBalance from scan.xyz: Frame 2 of 24
C        1.0494859566    0.2783036460    1.7066088639
C       -0.6828353056   -1.3810549348    1.5222550379
C        0.3962393713   -1.1371622086    3.5619095167
C        0.0816342308   -0.3641501045    0.9162678694
C        1.1897474479   -0.1162246050    3.0329483998
C       -1.2488464009    0.0038324745   -1.1714162592
C       -1.1491332507    0.6571787884   -2.5395679113
N       -0.5326041990   -1.7351343988    2.8041741811
N       -0.0782883293    0.0439177328   -0.4249623104
O       -2.2729982785   -0.5384478053   -0.7803356968
I        3.1425960491    0.3939182264    4.0724580417
H        1.6720816575    1.0632770183    1.2856266155
H       -1.4365354867   -1.9108193795    0.9518098944
H        0.4948112084   -1.4651866270    4.5932577729
H       -1.2081644903   -0.1236902236   -3.3034385569
H       -0.2312559847    1.2309444118   -2.6951847751
H       -2.0123956032    1.3129236183   -2.6724566917
H        0.6746860803    0.6069204992   -0.7998605131
18   
Generated by ForceBalance from scan.xyz: Frame 3 of 24
C        1.0248701719    0.2991300577    1.6973805991
C       -0.6066655893   -1.4549069775    1.4901868324
C        0.3806277449   -1.1139887487    3.5578511578
C        0.1256571216   -0.4138761369    0.8903088376
C        1.1408133235   -0.0645020672    3.0366696413
C       -1.2482469174    0.0695654603   -1.1287431560
C       -1.1566826644    0.6775423237   -2.5179000288
N       -0.4904576269   -1.7763148101    2.7832182269
N       -0.0289109980   -0.0579013408   -0.4696689138
O       -2.3059698368   -0.3128584225   -0.6505564134
I        3.0187706102    0.5724299700    4.1307400777
H        1.6126580967    1.1130810832    1.2819315471
H       -1.3084613386   -2.0364465443    0.9018453937
H        0.4619605194   -1.4187586003    4.5978481876
H       -1.3877715615   -0.0989377524   -3.2529719042
H       -0.1778194214    1.1036077883   -2.7549446173
H       -1.9207323781    1.4529271464   -2.6069530565
H        0.7563545435    0.4276258858   -0.8852685643
18   
Generated by ForceBalance from scan.xyz: Frame 4 of 24
C        0.9653404423    0.3403132630    1.6866176258
C       -0.5333145397   -1.5229113709    1.4552658653
C        0.3664509661   -1.0995125563    3.5426279685
C        0.1440308614   -0.4431172832    0.8650621734
C        1.0695706209   -0.0055326884    3.0331952715
C       -1.2405843974    0.1732881422   -1.0923084676
C       -1.1577355414    0.6918542967   -2.5176473891
N       -0.4386097217   -1.8271149289    2.7537113650
N       -0.0125852155   -0.1309051233   -0.5104510823
O       -2.3053635058   -0.0026596489   -0.5192964716
I        2.8589751427    0.7721041793    4.1730598706
H        1.5029538625    1.1913835997    1.2783876487
H       -1.1780407191   -2.1528745121    0.8489111251
H        0.4384229381   -1.3883384265    4.5878938814
H       -1.5799721616   -0.0636063610   -3.1866492776
H       -0.1415951390    0.9237934225   -2.8487493898
H       -1.7788745133    1.5867164484   -2.5976208349
H        0.8111081332    0.2163605095   -0.9861632662
18   
Generated by ForceBalance from scan.xyz: Frame 5 of 24
C        0.9218699276    0.3515198296    1.7114006728
C       -0.4123508265   -1.6258959462    1.4480364767
C        0.4062115902   -1.1419984789    3.5509437152
C        0.1804194691   -0.4914160564    0.8749650542
C        1.0229444756    0.0114253865    3.0594524521
C       -1.1732316114    0.2998824257   -1.0283475686
C       -1.1181870380    0.6886427056   -2.4959760405
N       -0.3146281015   -1.9357455265    2.7455700509
N        0.0174405944   -0.1939814236   -0.5087401737
O       -2.1953068503    0.3820990845   -0.3631155370
I        2.7161716915    0.9308445579    4.2423619965
H        1.3981253699    1.2412844351    1.3103260207
H       -0.9850768923   -2.3062297474    0.8219688666
H        0.4815907636   -1.4261868324    4.5973354362
H       -1.7238970236   -0.0218644506   -3.0659458666
H       -0.1075385244    0.7005118441   -2.9137515134
H       -1.5711835107    1.6756981007   -2.6118271471
H        0.8580742324   -0.0645418084   -1.0576781986
18   
Generated by ForceBalance from scan.xyz: Frame 6 of 24
C        1.6766851587   -0.3237082074    1.5726043456
C       -0.6669277475   -0.8378566229    1.5904007586
C        0.5053633735   -1.0704627551    3.5630395054
C        0.4628913100   -0.4104061804    0.8801378917
C        1.6760235340   -0.6425864892    2.9290077921
C        0.1330090623    1.2052106137   -0.9420204268
C       -0.1838157324    1.3240432305   -2.4230513594
N       -0.6513884226   -1.1535771892    2.8913849955
N        0.4006009169   -0.0890537315   -0.5103161580
O        0.1569440185    2.1631033501   -0.1834926645
I        3.6677999035   -1.1657070267    3.8809148911
H        2.5767168776   -0.0188863853    1.0489761369
H       -1.6241273573   -0.9305605221    1.0788246778
H        0.4934294426   -1.3339725066    4.6174160471
H       -1.2704012989    1.2940349469   -2.5576642989
H        0.2622038221    0.5234496115   -3.0204212985
H        0.1727641618    2.2902337956   -2.7824026857
H        0.1963161208   -0.8462345796   -1.1516629761
18   
Generated by ForceBalance from scan.xyz: Frame 7 of 24
C        1.6472104602   -0.2545004020    1.5851377706
C       -0.6443646986   -0.9690592548    1.5898075565
C        0.5313897854   -1.1060617831    3.5682671445
C        0.4461328777   -0.4393269682    0.8863643999
C        1.6639963039   -0.5767087788    2.9398717642
C        0.2951030102    1.1858840853   -0.9521836204
C       -0.1670596549    1.3385123108   -2.3907846648
N       -0.6075118968   -1.2919227211    2.8885495117
N        0.3588653143   -0.1333481748   -0.5019212624
O        0.5945351697    2.1334525520   -0.2424644510
I        3.6835746699   -0.9366635839    3.9054717149
H        2.5243591368    0.1182607829    1.0680523433
H       -1.5877243189   -1.1490055497    1.0743356587
H        0.5381275315   -1.3741861909    4.6213859594
H       -1.2507208517    1.4986205643   -2.4003791677
H        0.0600975894    0.4624581098   -3.0052049144
H        0.3069284280    2.2213113489   -2.8215961591
H       -0.1139221877   -0.8222984063   -1.0759233537
18   
Generated by ForceBalance from scan.xyz: Frame 8 of 24
C        1.5784123807   -0.1880098728    1.5893719115
C       -0.6485257920   -1.0899973823    1.5792962703
C        0.5277662723   -1.1521929733    3.5609095574
C        0.3955502135   -0.4609436370    0.8846717744
C        1.6146940205   -0.5275451081    2.9393985582
C        0.3946424792    1.1465157084   -0.9885525586
C       -0.1496961510    1.3379649248   -2.3931116995
N       -0.5889234646   -1.4241929570    2.8733647300
N        0.2685762562   -0.1535151685   -0.4942730143
O        0.9033913049    2.0490597374   -0.3421028497
I        3.6480630461   -0.7218220030    3.9110573845
H        2.4266849215    0.2607973701    1.0867844524
H       -1.5728110527   -1.3432844925    1.0589497104
H        0.5537680774   -1.4289156924    4.6112975862
H       -1.1880485145    1.6809146112   -2.3277058244
H       -0.1236528584    0.4205656380   -2.9882832892
H        0.4300306672    2.1150529196   -2.8927084989
H       -0.3591238702   -0.7577385848   -1.0127782975
18   
Generated by ForceBalance from scan.xyz: Frame 9 of 24
C        1.5480992488   -0.1046982886    1.6251831501
C       -0.6107791150   -1.1642605690    1.6003922342
C        0.5748683277   -1.1973664166    3.5753498294
C        0.3811476613   -0.4392134756    0.9176058511
C        1.6102333601   -0.4829837215    2.9645619247
C        0.4924291129    1.1320875705   -1.0034564530
C       -0.1276748735    1.3648613513   -2.3700484248
N       -0.5227368736   -1.5292879749    2.8825886820
N        0.1968561565   -0.1100576927   -0.4442379001
O        1.1899210814    1.9632290431   -0.4409754922
I        3.6564210317   -0.5589388776    3.9279208267
H        2.3584825577    0.4186026242    1.1345618381
H       -1.5169345707   -1.4705727228    1.0758321342
H        0.6264072147   -1.5003460412    4.6173035917
H       -1.0890097634    1.8741569333   -2.2417388935
H       -0.2976819860    0.4379719629   -2.9256379454
H        0.5264839336    2.0206432500   -2.9458194755
H       -0.5273666273   -0.6392939976   -0.9160566325
18   
Generated by ForceBalance from scan.xyz: Frame 10 of 24
C        1.4953534573   -0.0552939852    1.6428630383
C       -0.6049023028   -1.2278376560    1.5707589414
C        0.5837291372   -1.2868735681    3.5437453681
C        0.3459284395   -0.4195745953    0.9194157052
C        1.5773230910   -0.4939272077    2.9631771638
C        0.5623916940    1.1119620643   -1.0473931780
C       -0.0909953084    1.3833185423   -2.3916283740
N       -0.4980737116   -1.6403606767    2.8355513821
N        0.1139060213   -0.0437224823   -0.4192374831
O        1.4037835579    1.8546465371   -0.5603144732
I        3.6335994269   -0.5230452568    3.9224605985
H        2.2717787319    0.5354911717    1.1757676075
H       -1.4949471763   -1.5585083139    1.0329021368
H        0.6508780843   -1.6301813856    4.5721623435
H       -0.9443587912    2.0535818936   -2.2425450047
H       -0.4457539181    0.4758085576   -2.8889495430
H        0.6285772478    1.8923972306   -3.0340206870
H       -0.6661510215   -0.5139452433   -0.8626937359
18   
Generated by ForceBalance from scan.xyz: Frame 11 of 24
C        1.4420603432    0.0376017777    1.6773280929
C       -0.5791034212   -1.2667913222    1.5693329469
C        0.6223166183   -1.3231528637    3.5340633975
C        0.3143677729   -0.3747558540    0.9436280666
C        1.5571876151   -0.4458735757    2.9794837477
C        0.5942656334    1.0868936692   -1.0806971230
C       -0.0766631050    1.3692477735   -2.4142541992
N       -0.4412705348   -1.7154004730    2.8175968774
N        0.0326770184    0.0347866143   -0.3732236644
O        1.5382004215    1.7477693464   -0.6666955499
I        3.6313493557   -0.3941549802    3.9325209465
H        2.1703277380    0.6997068918    1.2287441785
H       -1.4508395114   -1.6322923097    1.0237062735
H        0.7178316327   -1.7018655488    4.5476538335
H       -0.8268266057    2.1549426787   -2.2748271618
H       -0.5693634740    0.4928863377   -2.8455760053
H        0.6757357188    1.7421154394   -3.1103237029
H       -0.7804127715   -0.4006294555   -0.7911896992
18   
Generated by ForceBalance from scan.xyz: Frame 12 of 24
C        1.2943025941   -0.5319368433    1.1868679894
C       -0.8977774831   -0.4273931379    2.1758877584
C        0.8775155180   -0.9103661964    3.5646296559
C       -0.0872875027   -0.3127733150    1.0287841025
C        1.7447208529   -0.8147566234    2.4744144696
C       -0.1183028789    0.1741920454   -1.4358932245
C       -1.0835965314    0.5429074657   -2.5494671884
N       -0.4368509120   -0.6999738933    3.3972268879
N       -0.7062516312    0.0108192884   -0.1928679823
O        1.0837383773    0.0454139860   -1.6346577891
I        3.7765144392   -1.8651762757    2.6646626448
H        1.9521828701   -0.4794235774    0.3299865326
H       -1.9771436518   -0.2881779830    2.0927501728
H        1.2311155900   -1.1362101292    4.5665630952
H       -0.8335906043    1.5457709283   -2.9071637783
H       -2.1359779910    0.5259938257   -2.2527584436
H       -0.9345772189   -0.1496562881   -3.3810920431
H       -1.7091253810    0.1388788259   -0.1453437601
18   
Generated by ForceBalance from scan.xyz: Frame 13 of 24
C        1.2635563520    0.0935088938    0.8061517079
C       -0.9199067868   -0.2391548564    1.7645154753
C        0.9094864714   -0.6433612732    3.1075558850
C       -0.1355875460    0.1340454078    0.6556042858
C        1.7530615186   -0.2888606266    2.0524855235
C       -0.2467406669    0.6850697131   -1.7898280750
C       -1.2636614466    0.9744470916   -2.8807384464
N       -0.4216388037   -0.5984140160    2.9488283654
N       -0.7904837189    0.5391834778   -0.5229159259
O        0.9507399779    0.5789785354   -2.0230171010
I        3.9100722898   -1.0522981143    2.1397399738
H        1.9072792647    0.3405033910   -0.0270444002
H       -2.0081879581   -0.2436179828    1.6822453590
H        1.2940178598   -0.9463811311    4.0772572220
H       -0.8343272822    1.7014905105   -3.5721342112
H       -2.2176314045    1.3529580862   -2.5026045539
H       -1.4505842629    0.0522577581   -3.4402670494
H       -1.7994853701    0.5909050737   -0.4577920811
18   
Generated by ForceBalance from scan.xyz: Frame 14 of 24
C        1.2661587651    0.1809063172    0.8402964305
C       -0.9187875298   -0.2748823262    1.7393902360
C        0.9017025106   -0.6885272815    3.0901640172
C       -0.1302398050    0.1823933363    0.6677178564
C        1.7524943519   -0.2524633139    2.0709970240
C       -0.2563557336    0.6336222996   -1.7884719108
C       -1.2718758664    0.9518691093   -2.8724579535
N       -0.4271850231   -0.6797884949    2.9128665971
N       -0.7686847380    0.6548329891   -0.4974527013
O        0.9142098577    0.3787180298   -2.0377515954
I        3.9302870364   -0.9124530430    2.1655692408
H        1.9162657697    0.4878307447    0.0323059066
H       -2.0044580752   -0.3123271130    1.6367195262
H        1.2815168681   -1.0271121202    4.0499748720
H       -0.7900661188    1.5700036206   -3.6318847770
H       -2.1631497589    1.4644503989   -2.4995359676
H       -1.5803527457    0.0162273556   -3.3500280884
H       -1.7721639827    0.7662531591   -0.4183396708
18   
Generated by ForceBalance from scan.xyz: Frame 15 of 24
C        1.2770161225    0.2293547047    0.8621889116
C       -0.9123706131   -0.3353691570    1.6848918314
C        0.8920040614   -0.7776055351    3.0476156940
C       -0.1137680384    0.2023805686    0.6621212275
C        1.7539882874   -0.2638366347    2.0737217193
C       -0.2736020142    0.5533434764   -1.7946258001
C       -1.2689075804    0.9537276795   -2.8696730272
N       -0.4326642647   -0.7919142960    2.8459035235
N       -0.7241747080    0.7462206346   -0.4912358082
O        0.8349848216    0.1073093855   -2.0527665641
I        3.9406283879   -0.8536649073    2.1791639038
H        1.9348292460    0.6024728776    0.0881476588
H       -1.9935673267   -0.3974491123    1.5542674630
H        1.2621947055   -1.1585193002    3.9954348635
H       -0.7286113174    1.4412155175   -3.6829595387
H       -2.0567232047    1.6199407576   -2.5069660731
H       -1.7335327600    0.0481887521   -3.2732465589
H       -1.7097145773    0.9592379996   -0.3935129138
18   
Generated by ForceBalance from scan.xyz: Frame 16 of 24
C        1.2844745230    0.3176891418    0.9074882567
C       -0.9003958826   -0.3868718536    1.6197079038
C        0.8806823460   -0.8362072258    3.0112134653
C       -0.0947971488    0.2430246060    0.6599650006
C        1.7511693086   -0.2300706071    2.0988885360
C       -0.3097109148    0.4800515623   -1.7894198097
C       -1.2813353604    0.9344630120   -2.8641800059
N       -0.4356679157   -0.8914596865    2.7687880675
N       -0.6722993968    0.8394813709   -0.4907952154
O        0.7158853673   -0.1353709062   -2.0374155997
I        3.9553636655   -0.7331664836    2.2313093916
H        1.9448221080    0.7729803006    0.1793854837
H       -1.9724477933   -0.4881699154    1.4482252976
H        1.2389053876   -1.2600022935    3.9455128451
H       -0.7126327174    1.2624073447   -3.7358923096
H       -1.9427257257    1.7414570691   -2.5365893063
H       -1.8943962231    0.0794527991   -3.1676184534
H       -1.6272886819    1.1582839487   -0.3752095387
18   
Generated by ForceBalance from scan.xyz: Frame 17 of 24
C        1.2999437003    0.4102120889    0.9592200234
C       -0.8689234139   -0.4360319365    1.5435541105
C        0.8816097181   -0.8743445994    2.9786579035
C       -0.0606796735    0.2806136994    0.6508517630
C        1.7540383211   -0.1759972798    2.1370726783
C       -0.3773631515    0.4042561965   -1.7853633769
C       -1.3111957020    0.9411343517   -2.8558961316
N       -0.4208793288   -0.9798949688    2.6824493527
N       -0.6063248840    0.9094705061   -0.5054916355
O        0.5173222022   -0.3930420310   -2.0211056819
I        3.9759522439   -0.5839193393    2.3117769088
H        1.9592499284    0.9414633516    0.2818249802
H       -1.9260601851   -0.5820114075    1.3219258028
H        1.2262932846   -1.3332713418    3.9015430731
H       -0.7388411979    1.1067475118   -3.7701487362
H       -1.8127988866    1.8690479040   -2.5670356638
H       -2.0713675378    0.1829144169   -3.0707121745
H       -1.4888772304    1.3886062324   -0.3691336077
18   
Generated by ForceBalance from scan.xyz: Frame 18 of 24
C        1.3042139258    0.4948525319    0.9809031251
C       -0.8093742318   -0.5365592679    1.4542399816
C        0.9171402865   -0.8761263596    2.9447673552
C       -0.0294662740    0.2720766879    0.6172298091
C        1.7630283874   -0.0821286408    2.1633012464
C       -0.5300602017    0.2924060966   -1.7994108567
C       -1.3586284347    0.9860154618   -2.8678163145
N       -0.3589598095   -1.0826266346    2.5909946075
N       -0.5755016573    0.8916210114   -0.5484748575
O        0.1273758144   -0.7144367294   -2.0189496508
I        4.0004464819   -0.2992159273    2.4232544204
H        1.9448419363    1.0943381577    0.3425991648
H       -1.8406021584   -0.7583275535    1.1827596074
H        1.2614697013   -1.3348470298    3.8682222209
H       -0.8009732453    0.9736375884   -3.8058375126
H       -1.6215562979    2.0171148883   -2.6146162750
H       -2.2810692808    0.4167089484   -3.0208347868
H       -1.2359791499    1.6459544798   -0.4073116116
18   
Generated by ForceBalance from scan.xyz: Frame 19 of 24
C        1.3174286662   -0.1569278839    1.5552686023
C       -0.8875151006   -1.0287866426    1.9291216698
C        0.7604090289   -1.5428764729    3.4650805664
C       -0.0221574136   -0.2443182480    1.1526238504
C        1.6890457809   -0.7888202086    2.7419334989
C       -0.7618548304   -0.2865164571   -1.2026107036
C       -0.9138459427    0.5965362314   -2.4294941899
N       -0.5104446422   -1.6499576191    3.0522128927
N       -0.4833446890    0.4082534620   -0.0262126345
O       -0.8781611563   -1.5016294859   -1.2355903318
I        3.8932272312   -1.1792423266    3.0695011370
H        2.0386814599    0.3822248699    0.9479548505
H       -1.9183812606   -1.1665661720    1.6116485434
H        1.0340731155   -2.0534038467    4.3848697859
H        0.0516675352    0.6618248990   -2.9428253180
H       -1.2472330143    1.6096215891   -2.1865182311
H       -1.6265725625    0.1309670053   -3.1112282199
H       -0.2051568957    1.3767834445   -0.1336225795
18   
Generated by ForceBalance from scan.xyz: Frame 20 of 24
C        1.3624227291   -0.1171292225    1.6268251228
C       -0.8100546740   -1.1178124600    1.8618315014
C        0.7911768667   -1.5927652061    3.4636894447
C        0.0507646270   -0.2622193005    1.1533736042
C        1.7102994819   -0.7684784437    2.8098361422
C       -0.8476963993   -0.2626949459   -1.1531148896
C       -0.9223557915    0.5992217888   -2.4015644607
N       -0.4508202587   -1.7499785704    2.9840753002
N       -0.3753329586    0.4066032658   -0.0230583374
O       -1.1784165882   -1.4378712194   -1.1326010363
I        3.9162742072   -1.0542611070    3.2302164677
H        2.0841464374    0.4810396628    1.0776183818
H       -1.8137344980   -1.3047864477    1.4915353288
H        1.0458485103   -2.1166308407    4.3812755522
H       -0.0038490112    0.4635732551   -2.9827650949
H       -1.0394427328    1.6637482945   -2.1790682074
H       -1.7600661763    0.2601198966   -3.0122364226
H        0.0548932765    1.3082699670   -0.1925037921
18   
Generated by ForceBalance from scan.xyz: Frame 21 of 24
C        1.3385952382   -0.0924469203    1.6370613004
C       -0.8010707832   -1.1847172183    1.7589907457
C        0.7306219942   -1.5827670999    3.4520127150
C        0.0629488427   -0.2969699360    1.0893877228
C        1.6471663745   -0.7248565632    2.8397938205
C       -0.9583468761   -0.2256519686   -1.1802948279
C       -0.9639153316    0.6182248947   -2.4436246393
N       -0.4751490655   -1.7911299616    2.9058217802
N       -0.3092437203    0.3704979266   -0.1004877066
O       -1.4771736291   -1.3296472626   -1.1144917103
I        3.8407236968   -0.9200792985    3.3759156336
H        2.0621051517    0.5411346116    1.1311352213
H       -1.7733059520   -1.4187394229    1.3396124910
H        0.9563630286   -2.0905234912    4.3859643780
H       -0.1008823244    0.3439702994   -3.0599393055
H       -0.9173438926    1.6919697008   -2.2397676245
H       -1.8684913579    0.3941367976   -3.0101264669
H        0.2218446194    1.2065575967   -0.3129377303
18   
Generated by ForceBalance from scan.xyz: Frame 22 of 24
C        1.3125335831   -0.0629903566    1.6323625738
C       -0.7687905311   -1.2700808769    1.6787536375
C        0.7113226656   -1.5639553021    3.4420793748
C        0.0744675337   -0.3434699097    1.0308287948
C        1.6020108120   -0.6626358627    2.8546859567
C       -1.0740778966   -0.1858874709   -1.1903368346
C       -1.0135003595    0.6214941608   -2.4765068619
N       -0.4565390958   -1.8413605272    2.8482244410
N       -0.2647209424    0.3098338902   -0.1729218195
O       -1.7658689408   -1.1861663272   -1.0669361238
I        3.7890950455   -0.7396677565    3.4807161328
H        2.0198055629    0.6101916544    1.1549646331
H       -1.7101737495   -1.5580340919    1.2267835724
H        0.9248346523   -2.0475712842    4.3914971934
H       -0.2406194172    0.1978113263   -3.1268856518
H       -0.7835924056    1.6778889994   -2.3091254040
H       -1.9720654100    0.5346895003   -2.9891789213
H        0.3456340901    1.0757560227   -0.4311767428
18   
Generated by ForceBalance from scan.xyz: Frame 23 of 24
C        1.2964330818    0.0023742002    1.6631963629
C       -0.7123061993   -1.3237088065    1.6510634932
C        0.7213479239   -1.5145132419    3.4697590467
C        0.1005093129   -0.3586684234    1.0176327345
C        1.5742423283   -0.5659292740    2.9010632883
C       -1.1570691065   -0.1246416521   -1.1463931087
C       -1.0797664117    0.6436345719   -2.4556893774
N       -0.4075722524   -1.8613714666    2.8392030685
N       -0.2101146545    0.2629903960   -0.2079039276
O       -1.9702977948   -1.0174987045   -0.9519584556
I        3.7586420787   -0.5227767841    3.5984202797
H        1.9788167613    0.7141598640    1.2056602554
H       -1.6240590458   -1.6632156355    1.1759299908
H        0.9295164982   -1.9756706241    4.4313355536
H       -0.4249239398    0.1024655109   -3.1470858143
H       -0.6920411597    1.6598507789   -2.3373143135
H       -2.0766360346    0.6837734940   -2.8959415164
H        0.4443900332    0.9760132597   -0.5054608638
18   
Generated by ForceBalance from scan.xyz: Frame 24 of 24
C        1.0706403363    0.2675266071    1.7096149015
C       -0.8184975132   -1.2199798114    1.5988486038
C        0.4268390948   -1.1653746559    3.5607550166
C       -0.0143349869   -0.2427220226    0.9730113974
C        1.2603830151   -0.1905600985    3.0074260290
C       -1.2121372125   -0.0892090079   -1.2334425982
C       -1.1076407732    0.6093613916   -2.5791411115
N       -0.6016000796   -1.6450215778    2.8504820635
N       -0.2213544904    0.2567318038   -0.3275297120
O       -2.0956947888   -0.8999457488   -0.9883928106
I        3.3554990483    0.0794887461    3.9132627720
H        1.7367961204    1.0062148728    1.2712511836
H       -1.6520515884   -1.6603561588    1.0665540157
H        0.5693250028   -1.5435268156    4.5693416819
H       -0.8309297700   -0.1319102368   -3.3347109702
H       -0.3801071088    1.4254389678   -2.6040738680
H       -2.0931645131    0.9976435390   -2.8448952403
H        0.4617414295    0.9329340767   -0.6443254178
