22   
Generated by ForceBalance from scan.xyz: Frame 1 of 24
C        1.7568291953   -1.0000303442   -0.0830323428
C        2.7945826786   -1.5779973419    1.9968198708
C        0.7365985722   -0.3427782224    0.6023035040
C        1.7586233540   -0.9525124139    2.6947227877
C        2.8207885450   -1.6105721233    0.5968135466
C        0.7124425206   -0.2926853327    2.0152023844
C       -1.5167714624    0.7203556800    1.9813250021
C       -0.4555087511    0.1130768486    4.1274435749
N        3.8212245721   -2.3140987946   -0.1379346894
N       -0.2984956697    0.3919384588    2.7076310499
H        1.7243877718   -1.0541867205   -1.1685549092
H        3.5943229309   -2.0558772623    2.5605699093
H       -0.0567892383    0.1131890553    0.0218561637
H        1.7866115679   -0.9738216838    3.7777311282
H       -2.2067207907    1.2330230508    2.6544824488
H       -2.0272882950   -0.1663980407    1.5702556835
H       -1.3039369652    1.4054529103    1.1546062321
H       -1.2851254002    0.7051601825    4.5187729404
H        0.4410272986    0.4070591200    4.6825314992
H       -0.6575365968   -0.9502446312    4.3391930212
H        4.3873027460   -2.9059216994    0.4619600061
H        4.4227054175   -1.7004458516   -0.6799109041
22   
Generated by ForceBalance from scan.xyz: Frame 2 of 24
C        1.7474788176   -0.9999993080   -0.0900359264
C        2.8018792675   -1.5571825244    1.9867190091
C        0.7224548987   -0.3502569487    0.5964572835
C        1.7661892675   -0.9370460625    2.6884732443
C        2.8193958517   -1.5962346017    0.5863825207
C        0.7082669013   -0.2924286978    2.0093610165
C       -1.5226091367    0.7185725334    1.9813547524
C       -0.4469004489    0.1216212315    4.1284035443
N        3.8328085901   -2.2810967345   -0.1666686460
N       -0.3042899039    0.3819085120    2.7035519577
H        1.7168824332   -1.0607517486   -1.1748266885
H        3.6095664142   -2.0262148859    2.5463602844
H       -0.0801483547    0.0934782016    0.0192774101
H        1.7989894095   -0.9516218990    3.7714513953
H       -2.2108137843    1.2273743350    2.6590152996
H       -2.0349146193   -0.1643021664    1.5650183816
H       -1.3091126284    1.4087951393    1.1589795360
H       -1.2822476404    0.7070097619    4.5172281669
H        0.4492969645    0.4357993526    4.6730405245
H       -0.6325149491   -0.9410862336    4.3558558842
H        4.2403070964   -3.0401417250    0.3724329681
H        4.5777797955   -1.6556887542   -0.4644770788
22   
Generated by ForceBalance from scan.xyz: Frame 3 of 24
C        1.7441415205   -0.9927009517   -0.0944739698
C        2.8097318467   -1.5337958697    1.9805350043
C        0.7107786082   -0.3555732936    0.5929748172
C        1.7757227510   -0.9151866073    2.6844083342
C        2.8192294996   -1.5809803973    0.5798937153
C        0.7046443196   -0.2895305012    2.0052983924
C       -1.5329995059    0.7064352451    1.9830772764
C       -0.4409058154    0.1284507316    4.1295974364
N        3.8504528911   -2.2405388365   -0.1875271999
N       -0.3104577899    0.3755153500    2.7010040499
H        1.7213803001   -1.0483098713   -1.1794562887
H        3.6235913933   -1.9952616139    2.5373767428
H       -0.0978292960    0.0794900691    0.0176705588
H        1.8147985195   -0.9193007521    3.7672803270
H       -2.2212868057    1.2118123666    2.6630661654
H       -2.0418899553   -0.1792814263    1.5691324788
H       -1.3257729725    1.3972775860    1.1596620368
H       -1.2801184385    0.7085159902    4.5178294707
H        0.4551738297    0.4577396237    4.6653764381
H       -0.6136711573   -0.9336892917    4.3684204088
H        4.0878344225   -3.1363828708    0.2331460991
H        4.7006895570   -1.6803701463   -0.2113311583
22   
Generated by ForceBalance from scan.xyz: Frame 4 of 24
C        1.7472374653   -0.9806033252   -0.0967277029
C        2.8209068425   -1.5095376711    1.9763043400
C        0.7041209953   -0.3583063658    0.5903465433
C        1.7877375719   -0.8904861701    2.6803668242
C        2.8242141300   -1.5655126753    0.5758627306
C        0.7041753206   -0.2846701798    2.0020462716
C       -1.5435551424    0.6873171437    1.9841675663
C       -0.4353517641    0.1339967024    4.1295991721
N        3.8728708133   -2.1970636386   -0.1982095743
N       -0.3144750159    0.3730832737    2.6986473442
H        1.7331185731   -1.0238111352   -1.1823155961
H        3.6394075731   -1.9635169101    2.5324935451
H       -0.1077865285    0.0712568317    0.0155341073
H        1.8341069711   -0.8822079315    3.7629334184
H       -2.2355096388    1.1861673803    2.6651875354
H       -2.0428247306   -0.2058192983    1.5746345755
H       -1.3477158683    1.3782313681    1.1580461048
H       -1.2797163645    0.7064600423    4.5178520772
H        0.4590114266    0.4776815002    4.6591373407
H       -0.5941628249   -0.9285060929    4.3760361231
H        3.9459463839   -3.1827059776    0.0499577167
H        4.7734070336   -1.7761560041    0.0257286863
22   
Generated by ForceBalance from scan.xyz: Frame 5 of 24
C        1.7548300598   -0.9690275412   -0.0998967164
C        2.8347167112   -1.4865303039    1.9738815560
C        0.7046058325   -0.3619880354    0.5893241574
C        1.8010532157   -0.8676960249    2.6780650948
C        2.8335644812   -1.5505612395    0.5740472778
C        0.7073684752   -0.2806107836    2.0007654463
C       -1.5519575577    0.6649927430    1.9854601287
C       -0.4297399161    0.1378172545    4.1293009968
N        3.8974270127   -2.1542694280   -0.1975609726
N       -0.3162865158    0.3711173970    2.6969547240
H        1.7459257837   -0.9988555236   -1.1861351640
H        3.6571833535   -1.9327954494    2.5306171364
H       -0.1102482440    0.0621123356    0.0146445501
H        1.8538688375   -0.8491039255    3.7602176714
H       -2.2469645958    1.1608607814    2.6656085698
H       -2.0424280807   -0.2371539534    1.5848221006
H       -1.3682161324    1.3519305409    1.1533043349
H       -1.2781982827    0.7040115297    4.5179237648
H        0.4631051610    0.4927717973    4.6539645509
H       -0.5772281343   -0.9250230235    4.3816977826
H        3.8273176220   -3.1707690040   -0.1590400674
H        4.7973409685   -1.9195891283    0.2185046764
22   
Generated by ForceBalance from scan.xyz: Frame 6 of 24
C        1.7654305282   -0.9625835571   -0.0941244484
C        2.8465627881   -1.4657274776    1.9826699160
C        0.7095592521   -0.3643437727    0.5927615113
C        1.8100409960   -0.8452003773    2.6826295110
C        2.8459590183   -1.5396223995    0.5838976537
C        0.7108731933   -0.2732542708    2.0038626558
C       -1.5589410272    0.6462469759    1.9832437079
C       -0.4292990641    0.1494560740    4.1292544186
N        3.9228780239   -2.1206596557   -0.1759304553
N       -0.3186412952    0.3766212771    2.6959468905
H        1.7588558268   -0.9854610007   -1.1808177871
H        3.6702441615   -1.9046931291    2.5436035210
H       -0.1063910782    0.0536221828    0.0150861536
H        1.8654617455   -0.8174165421    3.7644560617
H       -2.2605359379    1.1379312404    2.6597320592
H       -2.0370442286   -0.2662227150    1.5905884471
H       -1.3862161727    1.3287536625    1.1450398391
H       -1.2835902418    0.7086065377    4.5154340346
H        0.4599738831    0.5166584343    4.6517106643
H       -0.5651125052   -0.9136942752    4.3876606972
H        3.7406413187   -3.1062488019   -0.3621303999
H        4.7827560407   -2.0906891501    0.3687610936
22   
Generated by ForceBalance from scan.xyz: Frame 7 of 24
C        1.7747666657   -0.9544304848   -0.0860042273
C        2.8551041335   -1.4436313216    1.9947737551
C        0.7175518886   -0.3558745276    0.5973067131
C        1.8163178925   -0.8188410337    2.6889373061
C        2.8564895824   -1.5269477108    0.5970888192
C        0.7167863017   -0.2542229545    2.0076044663
C       -1.5655769015    0.6313007208    1.9829204760
C       -0.4306928793    0.1696359637    4.1272505629
N        3.9421609586   -2.0945501842   -0.1463051901
N       -0.3160688336    0.4022505839    2.6947707576
H        1.7657989994   -0.9784979310   -1.1730276084
H        3.6776598522   -1.8782600553    2.5608594326
H       -0.0981954494    0.0567129574    0.0154613031
H        1.8720523487   -0.7854137852    3.7705521384
H       -2.2718419527    1.1272770341    2.6515867658
H       -2.0295705348   -0.2990619050    1.6153674988
H       -1.4102464972    1.2964471262    1.1278343421
H       -1.2824974172    0.7325170300    4.5139327330
H        0.4593988265    0.5308551790    4.6519486352
H       -0.5722990463   -0.8939410080    4.3821753913
H        3.6815593099   -2.9919857396   -0.5514164360
H        4.7339263336   -2.2706403399    0.4681289981
22   
Generated by ForceBalance from scan.xyz: Frame 8 of 24
C        1.7820578411   -0.9596394968   -0.0771047614
C        2.8657035912   -1.4264424884    2.0078777439
C        0.7243112728   -0.3587664535    0.6032620869
C        1.8229147823   -0.8020745314    2.6964599329
C        2.8684828288   -1.5196127725    0.6106835615
C        0.7220772198   -0.2453057875    2.0121537957
C       -1.5668266059    0.6210843926    1.9809501542
C       -0.4325184976    0.1820106620    4.1268435517
N        3.9617927850   -2.0777739663   -0.1140989010
N       -0.3145696434    0.4145505730    2.6946445118
H        1.7657353395   -0.9938660301   -1.1642325914
H        3.6899296888   -1.8525303689    2.5780005499
H       -0.0942122283    0.0430504804    0.0177406695
H        1.8780338586   -0.7636820098    3.7779308767
H       -2.2766474566    1.1215551120    2.6426290004
H       -2.0235521625   -0.3188625071    1.6281686873
H       -1.4182158393    1.2742846696    1.1155565996
H       -1.2857748750    0.7444224330    4.5112878799
H        0.4558097576    0.5445515022    4.6534931335
H       -0.5735759399   -0.8817500400    4.3823568090
H        3.6654997193   -2.8426073435   -0.7156246788
H        4.6697747615   -2.4411510596    0.5184158364
22   
Generated by ForceBalance from scan.xyz: Frame 9 of 24
C        1.7870998819   -0.9738045755   -0.0658958136
C        2.8761452535   -1.4107370919    2.0225909442
C        0.7291799287   -0.3658845139    0.6091118688
C        1.8277559740   -0.7887654441    2.7036726418
C        2.8800031285   -1.5164313868    0.6256239586
C        0.7253733204   -0.2391192745    2.0159829999
C       -1.5670283811    0.6173803335    1.9792008432
C       -0.4351508991    0.1911419339    4.1263896819
N        3.9786426327   -2.0740817343   -0.0800996651
N       -0.3137380946    0.4242875674    2.6945837305
H        1.7611885872   -1.0266009193   -1.1525426058
H        3.7040695311   -1.8237542899    2.5967414009
H       -0.0923136947    0.0229037754    0.0190473028
H        1.8816614834   -0.7433978193    3.7849630939
H       -2.2786581123    1.1226082324    2.6354277587
H       -2.0204792263   -0.3282470855    1.6368557998
H       -1.4212174741    1.2615132367    1.1065697295
H       -1.2896102123    0.7532134494    4.5088625082
H        0.4515901637    0.5541519160    4.6553206992
H       -0.5762874481   -0.8728350850    4.3816613329
H        3.6823481646   -2.6753878878   -0.8434171407
H        4.5902094382   -2.6064156667    0.5315736162
22   
Generated by ForceBalance from scan.xyz: Frame 10 of 24
C        1.7913204336   -0.9926884737   -0.0551467946
C        2.8859277095   -1.4005215998    2.0376837708
C        0.7338213878   -0.3765841500    0.6149081138
C        1.8311772567   -0.7846868971    2.7125309431
C        2.8900976243   -1.5167884014    0.6404820687
C        0.7281599295   -0.2408320458    2.0198618038
C       -1.5661618273    0.6079625493    1.9747101149
C       -0.4372975321    0.1974053681    4.1263187192
N        3.9924578301   -2.0809819060   -0.0466647117
N       -0.3138302402    0.4240532637    2.6937398626
H        1.7566106029   -1.0660781268   -1.1407598079
H        3.7197649262   -1.7983260385    2.6135977786
H       -0.0901934253    0.0017004944    0.0214888302
H        1.8830836042   -0.7328872211    3.7936408294
H       -2.2818473721    1.1129723638    2.6267080436
H       -2.0145575770   -0.3412975587    1.6355001066
H       -1.4210092271    1.2485693820    1.0992131109
H       -1.2944576641    0.7584066708    4.5043634454
H        0.4470632661    0.5660877625    4.6553424590
H       -0.5753527416   -0.8657847752    4.3868801135
H        3.7301583011   -2.4980728303   -0.9339229392
H        4.4948075142   -2.7635751184    0.5116215954
22   
Generated by ForceBalance from scan.xyz: Frame 11 of 24
C        1.7925266132   -1.0092165024   -0.0395688239
C        2.8958999548   -1.3795506963    2.0555160937
C        0.7352132768   -0.3832548388    0.6235557656
C        1.8354871335   -0.7696247151    2.7249163308
C        2.8987416882   -1.5114785124    0.6590072326
C        0.7300933305   -0.2354635875    2.0265591367
C       -1.5625848183    0.6165090859    1.9721285673
C       -0.4411744363    0.2099135778    4.1288828623
N        4.0031156719   -2.0924576332   -0.0109225043
N       -0.3133186795    0.4310871161    2.6956824184
H        1.7496062838   -1.1067221484   -1.1232079487
H        3.7381912133   -1.7578106757    2.6315928500
H       -0.0921782095   -0.0173052838    0.0271020435
H        1.8873201900   -0.7061383979    3.8054358778
H       -2.2777065038    1.1289295639    2.6189381906
H       -2.0146900776   -0.3325602167    1.6372642186
H       -1.4113660029    1.2509723378    1.0931592466
H       -1.3014342702    0.7698065668    4.5014380068
H        0.4399553024    0.5832948840    4.6599314449
H       -0.5771331947   -0.8525925037    4.3929295485
H        3.8010950072   -2.3195618910   -0.9787329649
H        4.3783408107   -2.9058713005    0.4654280099
22   
Generated by ForceBalance from scan.xyz: Frame 12 of 24
C        1.7947117543   -1.0265559869   -0.0304894960
C        2.9032620452   -1.3703443712    2.0651808025
C        0.7366321591   -0.3945375751    0.6266331944
C        1.8380057885   -0.7670527297    2.7320113508
C        2.9068486111   -1.5121794549    0.6697224953
C        0.7311423234   -0.2402567457    2.0288382597
C       -1.5639777974    0.6041671013    1.9684420345
C       -0.4418174710    0.2162146418    4.1284882920
N        4.0126011167   -2.1162243163    0.0148216710
N       -0.3141633360    0.4260613952    2.6933039689
H        1.7476356763   -1.1412083118   -1.1123054684
H        3.7526367399   -1.7344936448    2.6390677556
H       -0.0924904662   -0.0356277253    0.0282769699
H        1.8892589887   -0.6955667432    3.8120364137
H       -2.2795517917    1.1207491754    2.6113835539
H       -2.0145535711   -0.3482231680    1.6415066995
H       -1.4137023775    1.2317742037    1.0844821197
H       -1.3019750996    0.7792579326    4.4964467828
H        0.4392474753    0.5937060499    4.6564288170
H       -0.5780717906   -0.8440807128    4.4006117698
H        3.8982382516   -2.1502052586   -0.9926031598
H        4.2394848611   -3.0381570837    0.3731677410
22   
Generated by ForceBalance from scan.xyz: Frame 13 of 24
C        1.7974889493   -1.0424006893   -0.0189253116
C        2.9085153070   -1.3607204090    2.0798087312
C        0.7370494204   -0.4085055778    0.6322338397
C        1.8394363074   -0.7604662065    2.7434260903
C        2.9126785911   -1.5133895134    0.6863871522
C        0.7305448508   -0.2448215377    2.0342770562
C       -1.5654549950    0.5996754998    1.9653477726
C       -0.4402803758    0.2321436792    4.1310512338
N        4.0229055793   -2.1429233016    0.0471218942
N       -0.3171999229    0.4189633112    2.6922529228
H        1.7510771154   -1.1699735692   -1.0992935881
H        3.7635641021   -1.7143300802    2.6509505468
H       -0.0939390565   -0.0572732236    0.0319898186
H        1.8894390676   -0.6787760946    3.8227825274
H       -2.2802002716    1.1197213443    2.6062531776
H       -2.0183049809   -0.3520446514    1.6404677451
H       -1.4121794061    1.2246343677    1.0800195171
H       -1.3038450577    0.7946082355    4.4915300406
H        0.4392732674    0.6242880460    4.6508196414
H       -0.5683313301   -0.8243857821    4.4201031314
H        4.0215995493   -1.9887180493   -0.9562714968
H        4.0783700971   -3.1386530507    0.2401748239
22   
Generated by ForceBalance from scan.xyz: Frame 14 of 24
C        1.9126841887   -0.8609191144    0.0050964084
C        2.7998831166   -1.5982194970    2.1041920643
C        0.8545756686   -0.2315755018    0.6630580984
C        1.7324328074   -0.9994168640    2.7728629315
C        2.9150454940   -1.5407906689    0.7100009931
C        0.7386709669   -0.2794410167    2.0705710047
C       -1.4552738294    0.8030489685    1.9630369042
C       -0.5516635723    0.0191663041    4.1307897410
N        4.0216574519   -2.1968065168    0.0694193545
N       -0.3027906184    0.3734527239    2.7411035377
H        1.9559823769   -0.8189723913   -1.0820141598
H        3.5676491081   -2.1198920104    2.6697445326
H        0.1133428394    0.2864328472    0.0659809475
H        1.6916526021   -1.0833618202    3.8524392787
H       -2.1792378245    1.2778386329    2.6278966069
H       -1.9570724762   -0.0284627269    1.4412690225
H       -1.1646970554    1.5488204165    1.2159899491
H       -1.3977122732    0.6004700538    4.5021368273
H        0.3113109555    0.2680794330    4.7566203168
H       -0.7788063330   -1.0507875785    4.2684886927
H        4.2688996780   -1.7334664170   -0.8008410251
H        3.8192820057   -3.1736276763   -0.1295788417
22   
Generated by ForceBalance from scan.xyz: Frame 15 of 24
C        1.9069045122   -0.8899632903    0.0100789962
C        2.7942457252   -1.6120640691    2.1137612461
C        0.8469168369   -0.2590068998    0.6620992191
C        1.7323919284   -1.0000773510    2.7806636037
C        2.9063896188   -1.5690190074    0.7203466787
C        0.7364940862   -0.2899222721    2.0717310560
C       -1.4580261848    0.7921866422    1.9570370266
C       -0.5440650562    0.0400804745    4.1333504179
N        4.0190349036   -2.2391274209    0.0868798724
N       -0.3033697074    0.3688687864    2.7357649567
H        1.9536087481   -0.8529641976   -1.0770348054
H        3.5593340440   -2.1381934488    2.6782640706
H        0.1038100332    0.2527749727    0.0620312128
H        1.6935099446   -1.0725343931    3.8611039700
H       -2.1788962249    1.2748977423    2.6194376966
H       -1.9625425100   -0.0442900564    1.4463957687
H       -1.1692418232    1.5295627977    1.2011018929
H       -1.3882147314    0.6277404550    4.4987913492
H        0.3225359851    0.3004956413    4.7493431911
H       -0.7699319024   -1.0271196557    4.2912498602
H        4.4211166588   -1.6506786386   -0.6398949204
H        3.7148356160   -3.1038294893   -0.3569557897
22   
Generated by ForceBalance from scan.xyz: Frame 16 of 24
C        1.8951038704   -0.9240338752    0.0118135431
C        2.7848986549   -1.6322644961    2.1196272049
C        0.8356201780   -0.2889017225    0.6601747346
C        1.7327164092   -1.0011686886    2.7844211044
C        2.8902137522   -1.6055168108    0.7258910619
C        0.7341163987   -0.2993238106    2.0711313661
C       -1.4595638727    0.7839202201    1.9528812991
C       -0.5346541619    0.0617423139    4.1349450187
N        4.0062797058   -2.2809254293    0.0967333863
N       -0.3012378385    0.3696730878    2.7312542996
H        1.9427608260   -0.8917870460   -1.0754380455
H        3.5442367989   -2.1657765618    2.6848110379
H        0.0904802816    0.2168427220    0.0575362193
H        1.6980251156   -1.0609900000    3.8657402749
H       -2.1764173587    1.2762164778    2.6125547073
H       -1.9674697829   -0.0588600032    1.4563025442
H       -1.1740318012    1.5108108127    1.1856937986
H       -1.3755955956    0.6563748045    4.4964414752
H        0.3359419752    0.3293902242    4.7420968900
H       -0.7616347457   -1.0025479831    4.3094296566
H        4.5583932320   -1.6149696635   -0.4419598884
H        3.6649903758   -2.9744068871   -0.5673548610
22   
Generated by ForceBalance from scan.xyz: Frame 17 of 24
C        1.8789105726   -0.9563191069    0.0072094281
C        2.7743838391   -1.6513040835    2.1171667488
C        0.8212959281   -0.3176133213    0.6558188035
C        1.7326344185   -1.0031837576    2.7814360328
C        2.8719488799   -1.6394067717    0.7221066843
C        0.7298249531   -0.3082709077    2.0670644186
C       -1.4627905030    0.7783898283    1.9521993328
C       -0.5229549104    0.0801481059    4.1357440495
N        3.9849781461   -2.3167928294    0.0939759349
N       -0.3000435336    0.3701592956    2.7267651853
H        1.9236618650   -0.9284406179   -1.0803783467
H        3.5278516903   -2.1911409626    2.6843769275
H        0.0730491753    0.1817935142    0.0518117518
H        1.7041016868   -1.0520181532    3.8635153079
H       -2.1738069762    1.2798410545    2.6113193118
H       -1.9763159343   -0.0686831634    1.4687129937
H       -1.1812960678    1.4959061139    1.1747101637
H       -1.3590727529    0.6818087604    4.4968531961
H        0.3533993763    0.3523296133    4.7326300140
H       -0.7518586610   -0.9812062483    4.3253631549
H        4.6688568352   -1.6345524247   -0.2323971444
H        3.6623568154   -2.8086192997   -0.7381314075
22   
Generated by ForceBalance from scan.xyz: Frame 18 of 24
C        1.8597980382   -0.9833875370   -0.0016054913
C        2.7690392414   -1.6601038578    2.1084265334
C        0.8066789058   -0.3380662769    0.6494539843
C        1.7383633310   -0.9961735329    2.7729832822
C        2.8547653280   -1.6646106731    0.7112272127
C        0.7296362327   -0.3083093472    2.0599142266
C       -1.4662468278    0.7691766768    1.9528871888
C       -0.5185901050    0.0826769740    4.1299063752
N        3.9519438538   -2.3519593769    0.0790846348
N       -0.2921674748    0.3845631866    2.7232753212
H        1.8962373728   -0.9634886720   -1.0897487696
H        3.5191266464   -2.2020521637    2.6785389146
H        0.0545459194    0.1548460116    0.0449981376
H        1.7204963999   -1.0316459288    3.8558177722
H       -2.1696031200    1.2869492246    2.6078487309
H       -1.9841033930   -0.0913030830    1.4978993014
H       -1.1958523512    1.4668360029    1.1541223209
H       -1.3484306224    0.6900549044    4.4963032594
H        0.3597721491    0.3410353727    4.7294540206
H       -0.7583302523   -0.9781890398    4.3096462964
H        4.7440887175   -1.7216815765   -0.0407122801
H        3.6810765576   -2.6471034671   -0.8572978239
22   
Generated by ForceBalance from scan.xyz: Frame 19 of 24
C        1.8431516115   -0.9953730151   -0.0097429423
C        2.7670156579   -1.6606183290    2.0979804577
C        0.7927741610   -0.3484278589    0.6453291660
C        1.7416141341   -0.9907157336    2.7636204265
C        2.8432224377   -1.6727537017    0.6987882776
C        0.7259190289   -0.3083641699    2.0549130542
C       -1.4708223515    0.7670362935    1.9574471441
C       -0.5074598088    0.0943902646    4.1318911435
N        3.9183529202   -2.3707461711    0.0572437008
N       -0.2917908649    0.3887387901    2.7224557848
H        1.8719882072   -0.9794797025   -1.0982334984
H        3.5166583850   -2.2012062002    2.6706432180
H        0.0366472588    0.1402267826    0.0423087754
H        1.7322236343   -1.0191441645    3.8468030462
H       -2.1728860495    1.2841237263    2.6143885490
H       -1.9882303650   -0.0963109707    1.5069704905
H       -1.2068767909    1.4633566589    1.1550769244
H       -1.3366204501    0.7012686254    4.5007643327
H        0.3742926495    0.3589151734    4.7240522189
H       -0.7426559131   -0.9662026357    4.3202724881
H        4.7887337088   -1.8473255268    0.1301740706
H        3.7246186593   -2.4798164778   -0.9355944665
22   
Generated by ForceBalance from scan.xyz: Frame 20 of 24
C        1.8272131706   -1.0019016464   -0.0212733811
C        2.7693737659   -1.6502257901    2.0836989865
C        0.7820328310   -0.3525876558    0.6402876756
C        1.7469158844   -0.9795441139    2.7527401717
C        2.8358442974   -1.6706664318    0.6830934275
C        0.7240958130   -0.3034383523    2.0491279325
C       -1.4775299187    0.7609266910    1.9620843698
C       -0.5028656052    0.0952025989    4.1298887378
N        3.8860591001   -2.3819321527    0.0301942469
N       -0.2900895449    0.3985356873    2.7218239051
H        1.8447640879   -0.9939697118   -1.1101213433
H        3.5231733000   -2.1834886663    2.6585463747
H        0.0214474803    0.1315091736    0.0392418189
H        1.7480422853   -1.0005983310    3.8361636093
H       -2.1772270260    1.2817344498    2.6187882324
H       -1.9938602474   -0.1102696704    1.5250877012
H       -1.2238817139    1.4497504651    1.1500648827
H       -1.3304752764    0.7008250428    4.5045659403
H        0.3802814674    0.3555066385    4.7217452347
H       -0.7385969456   -0.9664856448    4.3126624465
H        4.8001959207   -2.0066546201    0.2711941054
H        3.7887644158   -2.3265917005   -0.9802108769
22   
Generated by ForceBalance from scan.xyz: Frame 21 of 24
C        1.8119005451   -1.0036654938   -0.0337784792
C        2.7741942032   -1.6374570931    2.0666153379
C        0.7730896603   -0.3513876200    0.6341205251
C        1.7514178736   -0.9707857318    2.7399716863
C        2.8307500586   -1.6634086793    0.6653530067
C        0.7225267768   -0.2987271159    2.0429121559
C       -1.4850061154    0.7528903921    1.9670969671
C       -0.4968767239    0.0956335395    4.1282808282
N        3.8571323802   -2.3843926882   -0.0018465049
N       -0.2891974636    0.4055528971    2.7208610093
H        1.8172734644   -1.0049863567   -1.1226976845
H        3.5354202126   -2.1601047633    2.6422727320
H        0.0081111668    0.1296375486    0.0361499859
H        1.7620941678   -0.9875819527    3.8234082210
H       -2.1830201965    1.2751230341    2.6246016810
H       -1.9991316864   -0.1254718937    1.5415526520
H       -1.2421878778    1.4362435662    1.1472410990
H       -1.3233728638    0.6993459508    4.5086942088
H        0.3881231826    0.3540266733    4.7181382478
H       -0.7313125385   -0.9671452534    4.3075873481
H        4.7771829973   -2.1875246940    0.3813091397
H        3.8733840515   -2.1817574584   -0.9969354419
22   
Generated by ForceBalance from scan.xyz: Frame 22 of 24
C        1.7988462883   -1.0040863695   -0.0452446600
C        2.7791962435   -1.6245183344    2.0510622120
C        0.7672858745   -0.3476647434    0.6278963928
C        1.7534435420   -0.9656347123    2.7293415735
C        2.8278680125   -1.6542086779    0.6499692492
C        0.7215198112   -0.2952378709    2.0374083447
C       -1.4930566227    0.7424488091    1.9719499859
C       -0.4886252986    0.0977360285    4.1273887469
N        3.8362525322   -2.3795861841   -0.0318004156
N       -0.2889285412    0.4093981618    2.7192669642
H        1.7924330547   -1.0174986992   -1.1338677854
H        3.5494176322   -2.1348970518    2.6265443321
H       -0.0017938412    0.1308213229    0.0331291949
H        1.7706651365   -0.9812454021    3.8127146334
H       -2.1897298327    1.2645331651    2.6310846866
H       -2.0041966247   -0.1425841232    1.5565744842
H       -1.2615983812    1.4217570600    1.1455554003
H       -1.3141185529    0.6996742045    4.5128976416
H        0.3991473947    0.3573378026    4.7125148638
H       -0.7200027665   -0.9657829401    4.3072174533
H        4.7214876260   -2.3794354692    0.4647717881
H        3.9837129474   -2.0444056257   -0.9783904498
22   
Generated by ForceBalance from scan.xyz: Frame 23 of 24
C        1.7843353818   -1.0009693317   -0.0591595015
C        2.7832931213   -1.6113292645    2.0314809061
C        0.7600529827   -0.3412516738    0.6195640088
C        1.7534565598   -0.9635195231    2.7163754458
C        2.8243844932   -1.6410708428    0.6309516121
C        0.7193237478   -0.2924319363    2.0303440752
C       -1.5029305258    0.7305959111    1.9772167735
C       -0.4776631748    0.1019401916    4.1270750772
N        3.8219350716   -2.3641504561   -0.0679319120
N       -0.2902982206    0.4094014056    2.7164394391
H        1.7663568949   -1.0273782221   -1.1470535057
H        3.5633696748   -2.1103698089    2.6042098982
H       -0.0146203032    0.1340541392    0.0294842237
H        1.7751114298   -0.9823641352    3.7995837835
H       -2.1974826039    1.2514067550    2.6396085533
H       -2.0115065540   -0.1599398429    1.5707250476
H       -1.2831192796    1.4073279749    1.1456398252
H       -1.3020295573    0.7024299520    4.5172395601
H        0.4141459325    0.3665250456    4.7037630276
H       -0.7039295496   -0.9617861562    4.3124540619
H        4.6331471193   -2.5685898407    0.5061198691
H        4.1142142822   -1.9104550094   -0.9272075296
22   
Generated by ForceBalance from scan.xyz: Frame 24 of 24
C        1.7734057124   -1.0086848224   -0.0696288609
C        2.7929307468   -1.5984778888    2.0167466922
C        0.7520634896   -0.3486636232    0.6117753066
C        1.7581264039   -0.9631004837    2.7071326551
C        2.8266816453   -1.6316740934    0.6167209419
C        0.7185085347   -0.2982854542    2.0236968765
C       -1.5076887478    0.7179474272    1.9777775159
C       -0.4700784227    0.0951361660    4.1254911605
N        3.8231470881   -2.3471880578   -0.0977870094
N       -0.2924772921    0.3961422726    2.7123211721
H        1.7459784103   -1.0522290884   -1.1562834321
H        3.5843069068   -2.0834215337    2.5862993576
H       -0.0321376177    0.1156702551    0.0255302184
H        1.7831373886   -0.9819236482    3.7902568484
H       -2.1989251880    1.2400236392    2.6425834753
H       -2.0188945370   -0.1723111175    1.5742703006
H       -1.2904269599    1.3936429550    1.1447470560
H       -1.2985400742    0.6894651578    4.5162327214
H        0.4219670627    0.3713967443    4.6964279835
H       -0.6850683637   -0.9696239290    4.3175039292
H        4.5262719923   -2.7488993362    0.5136318964
H        4.2684331397   -1.7995245398   -0.8270375780
