22   
Generated by ForceBalance from scan.xyz: Frame 1 of 24
C        1.7946995145   -1.1604519340   -0.2294007748
C        2.8151885506   -1.6733348174    1.9199239492
C        0.7239700488   -0.5676293504    0.4280788295
C        1.7492615832   -1.0813797560    2.5750788102
C        2.8609534921   -1.7321622127    0.5042916949
C        0.7010913776   -0.5292087930    1.8250740203
C        5.5134411182   -2.9118859422   -1.8956406093
C        4.2157555855   -2.1926692734   -1.5383326047
N        3.9195741973   -2.3552647064   -0.1178469294
N       -0.4203474160    0.0945521293    2.5089872752
O       -1.3293440071    0.5796279255    1.8180643195
O       -0.4105569006    0.1088239218    3.7494587569
H        1.8029024247   -1.1814306164   -1.3131156672
H        3.6292749342   -2.1058501452    2.4972758897
H       -0.0965663357   -0.1285652085   -0.1277114131
H        1.7114303384   -1.0350945012    3.6572623278
H        6.3642063789   -2.4912469867   -1.3470668910
H        5.4455799783   -3.9794371020   -1.6637070610
H        5.7228268472   -2.8061723164   -2.9636324148
H        3.3914418350   -2.6160797458   -2.1234070845
H        4.2872808527   -1.1266767039   -1.8022387203
H        4.7258789167   -2.5221666295    0.4716845490
22   
Generated by ForceBalance from scan.xyz: Frame 2 of 24
C        1.7121734723   -1.2709300790   -0.2199125942
C        2.8262464342   -1.6778158724    1.9041246660
C        0.6827192253   -0.6219330919    0.4494541566
C        1.7975612719   -1.0351944945    2.5741041720
C        2.7988125439   -1.8241237136    0.4963421281
C        0.7252437567   -0.5085525169    1.8424989351
C        5.5260847283   -2.8562200038   -1.8787607309
C        4.2191253052   -2.1559208200   -1.5183635020
N        3.8235131886   -2.4938530088   -0.1478620076
N       -0.3544770611    0.1728283986    2.5413530000
O       -1.2820187025    0.6420500255    1.8649976414
O       -0.2899769413    0.2496031969    3.7775174042
H        1.6702290459   -1.3581971978   -1.2999221892
H        3.6653016483   -2.0812600944    2.4667350477
H       -0.1562660686   -0.2001502304   -0.0919277606
H        1.8138137740   -0.9220865674    3.6518923931
H        6.3446043981   -2.5299142782   -1.2264163871
H        5.4247303992   -3.9423172193   -1.7891283125
H        5.8096570087   -2.6219199125   -2.9085672774
H        3.4330138849   -2.4827303274   -2.2074649459
H        4.3223481055   -1.0668863388   -1.6347901098
H        4.6144112795   -2.6859976167    0.4571350813
22   
Generated by ForceBalance from scan.xyz: Frame 3 of 24
C        1.6369832151   -1.4054709658   -0.2331921905
C        2.8395555215   -1.6607812785    1.8618632784
C        0.6172544158   -0.7413854280    0.4354697442
C        1.8172366866   -1.0086551937    2.5367966908
C        2.7623004686   -1.8915467796    0.4696388195
C        0.7081512549   -0.5491466107    1.8181875066
C        5.5340707025   -2.8550851837   -1.8906687638
C        4.3013324071   -2.0611031074   -1.4687806384
N        3.7838756405   -2.5703316427   -0.1884781098
N       -0.3633717857    0.1470541501    2.5193146936
O       -1.3234426622    0.5589408514    1.8520673655
O       -0.2580519046    0.2902708833    3.7462016619
H        1.5559068321   -1.5647572698   -1.3031448666
H        3.7118723359   -2.0052553650    2.4129316377
H       -0.2527558694   -0.3731528975   -0.0958048394
H        1.8713263073   -0.8320299079    3.6047664137
H        6.3452601278   -2.7481485558   -1.1606163546
H        5.2971176246   -3.9189202562   -1.9877627842
H        5.9064639347   -2.4938082775   -2.8535428868
H        3.5253166838   -2.1675101668   -2.2323426203
H        4.5399326701   -0.9897170866   -1.3938210336
H        4.5448377334   -2.7964211030    0.4452490727
22   
Generated by ForceBalance from scan.xyz: Frame 4 of 24
C        1.5864134417   -1.5437967276   -0.2262759159
C        2.8704096522   -1.6154991475    1.8322683403
C        0.5682208009   -0.8660634398    0.4303882056
C        1.8471797809   -0.9539793349    2.5019195502
C        2.7518124080   -1.9397679226    0.4647780536
C        0.7026146400   -0.5785477483    1.7936107751
C        5.4981491623   -2.8571499265   -1.9516881002
C        4.4096531398   -1.9641171503   -1.3643128593
N        3.7737451448   -2.6245520336   -0.2071831039
N       -0.3698443718    0.1295083712    2.4872080062
O       -1.3637690030    0.4657113789    1.8284755700
O       -0.2281299827    0.3560672751    3.6970409122
H        1.4753167681   -1.7939555921   -1.2766436560
H        3.7739883334   -1.8910383834    2.3714903528
H       -0.3344018426   -0.5671634153   -0.0898042474
H        1.9299984844   -0.7051298342    3.5535293586
H        6.2911134777   -3.0514527511   -1.2196484620
H        5.0822466955   -3.8184652369   -2.2672811084
H        5.9598823578   -2.3741419688   -2.8181328491
H        3.6426420564   -1.7739344873   -2.1195931841
H        4.8272004739   -0.9872887410   -1.0757691198
H        4.4922566323   -2.9165737784    0.4510474609
22   
Generated by ForceBalance from scan.xyz: Frame 5 of 24
C        1.5227059708   -1.6450878043   -0.2260145659
C        2.9075431294   -1.5853954692    1.7649206185
C        0.5341911320   -0.9249099489    0.4327524150
C        1.9145210573   -0.8829807205    2.4422728884
C        2.7187763112   -1.9955402044    0.4312986811
C        0.7374024767   -0.5539371812    1.7667509095
C        5.4863217283   -2.8121556731   -1.9914208631
C        4.4614012158   -1.9269296864   -1.2894578940
N        3.7134977930   -2.7047727109   -0.2767368693
N       -0.3040744230    0.1980595897    2.4683752424
O       -1.3278467537    0.4941761960    1.8383161455
O       -0.1029325625    0.4994745067    3.6523693086
H        1.3708947735   -1.9672822426   -1.2518932327
H        3.8383604558   -1.8256392607    2.2737372636
H       -0.3942654935   -0.6593430853   -0.0592192667
H        2.0458918458   -0.5684105744    3.4710587689
H        6.2232320069   -3.2063496642   -1.2814777725
H        4.9960388144   -3.6600599967   -2.4784539423
H        6.0304080786   -2.2389938249   -2.7485155824
H        3.7424342868   -1.5385930074   -2.0166806986
H        4.9551468364   -1.0556695645   -0.8309010834
H        4.3825019517   -3.0981752754    0.3827480989
22   
Generated by ForceBalance from scan.xyz: Frame 6 of 24
C        1.4594096917   -1.8428209976   -0.1326545455
C        3.0571917974   -1.4415055223    1.6458073051
C        0.4756842963   -1.1686485047    0.5879285272
C        2.0914860377   -0.7477018010    2.3672138300
C        2.7618728142   -1.9780591597    0.3798812561
C        0.8074958863   -0.6191896161    1.8276979179
C        5.6807663035   -2.7495400532   -1.8725003341
C        4.6322810100   -1.8838516993   -1.1811913808
N        3.7703467172   -2.7131930864   -0.3055496997
N       -0.2197838084    0.1008805623    2.5878697485
O       -1.3526336372    0.1812970351    2.0963901168
O        0.1042962358    0.5897620249    3.6772522007
H        1.2183526292   -2.2664276464   -1.1050275490
H        4.0521485618   -1.5887386613    2.0552773026
H       -0.5316437374   -1.0553003471    0.2045353191
H        2.3051611062   -0.3289921667    3.3437187904
H        6.3014144848   -3.2670235697   -1.1352963676
H        5.2110883355   -3.5057370819   -2.5129076354
H        6.3274743513   -2.1343487080   -2.5059912550
H        4.0349271314   -1.3354774649   -1.9272033715
H        5.1198841027   -1.1327525925   -0.5513095105
H        3.3173672311   -3.4110921561   -0.8949765598
22   
Generated by ForceBalance from scan.xyz: Frame 7 of 24
C        1.3727004365   -1.8872904767   -0.1286742719
C        3.0618062420   -1.3468676399    1.5260592279
C        0.4083993508   -1.2311112243    0.6316615454
C        2.1131590374   -0.6705329087    2.2818337511
C        2.7129722132   -1.9450572531    0.2979901946
C        0.7903768198   -0.6184264053    1.8267459920
C        5.7163068574   -2.7928360929   -1.8172604467
C        4.7143057258   -1.8772819986   -1.1211013162
N        3.6861255147   -2.6762057150   -0.4171734970
N       -0.2157496963    0.0818203688    2.6258313984
O       -1.3820965086    0.0917394582    2.2099919672
O        0.1545470425    0.6270066505    3.6740265017
H        1.0880357708   -2.3563864505   -1.0678270250
H        4.0835312503   -1.4330997150    1.8837278084
H       -0.6249947407   -1.1767108285    0.3095914795
H        2.3701618857   -0.2071886444    3.2272739790
H        6.2047922681   -3.4524321301   -1.0941702234
H        5.2245676908   -3.4188077208   -2.5714434595
H        6.4833002452   -2.2017769811   -2.3272335287
H        4.2519924834   -1.1906672157   -1.8473107257
H        5.2270789955   -1.2576153930   -0.3794422509
H        3.2245729114   -3.2740536862   -1.1004865065
22   
Generated by ForceBalance from scan.xyz: Frame 8 of 24
C        1.3056830058   -1.9284210236   -0.1111903590
C        3.0521098249   -1.2505985747    1.4317294641
C        0.3519837220   -1.3008106615    0.6819767847
C        2.1086204503   -0.6057425565    2.2192828547
C        2.6713890189   -1.9069797400    0.2405574453
C        0.7614761725   -0.6339382501    1.8396169790
C        5.6960488188   -2.8413688947   -1.8121802999
C        4.7844093431   -1.8901460428   -1.0428740487
N        3.6165123227   -2.6183878359   -0.5097180451
N       -0.2334398453    0.0356859559    2.6719387438
O       -1.4204026315   -0.0267571682    2.3217765867
O        0.1624276310    0.6301234184    3.6844291161
H        0.9951664614   -2.4385874457   -1.0203278858
H        4.0922787578   -1.2622965562    1.7416485095
H       -0.6979412345   -1.3083672932    0.4131955518
H        2.3926386999   -0.0998080475    3.1347293568
H        6.0393228218   -3.6555073388   -1.1671455891
H        5.1764682955   -3.2819746932   -2.6714320092
H        6.5700045843   -2.3052707093   -2.1942513062
H        4.4659915775   -1.0571096456   -1.6878808136
H        5.3327359782   -1.4536241889   -0.2038625605
H        3.1589646844   -3.1236893910   -1.2647870378
22   
Generated by ForceBalance from scan.xyz: Frame 9 of 24
C        1.2998458237   -2.0161912575   -0.0556104277
C        3.0743058684   -1.1621972920    1.3665681218
C        0.3498850219   -1.4077657207    0.7522931312
C        2.1282211876   -0.5420556547    2.1714261454
C        2.6797241917   -1.9008956968    0.2278886569
C        0.7694278084   -0.6664162450    1.8623100361
C        5.6431087082   -2.8351722638   -1.9024848894
C        4.8808014367   -1.9510004717   -0.9200023614
N        3.6107172260   -2.5909838546   -0.5418801479
N       -0.2230471054   -0.0190261251    2.7104016936
O       -1.4194603366   -0.1623522921    2.4186856756
O        0.1809981083    0.6387264605    3.6804226641
H        0.9789128904   -2.5879793887   -0.9235882606
H        4.1253388316   -1.0797353014    1.6219773958
H       -0.7086429662   -1.4883552396    0.5339365767
H        2.4241749185    0.0271895482    3.0450154663
H        5.8516798592   -3.8153721074   -1.4631581275
H        5.0725262220   -2.9865192353   -2.8266184933
H        6.5939442607   -2.3679130580   -2.1742900195
H        4.7034176232   -0.9563090208   -1.3550137219
H        5.4860679297   -1.8077520991   -0.0200186072
H        3.1750911629   -3.0347653555   -1.3450907535
22   
Generated by ForceBalance from scan.xyz: Frame 10 of 24
C        1.2892408785   -2.0494373423   -0.0114010655
C        3.0987268260   -1.0648631629    1.2829963782
C        0.3593331491   -1.4375507974    0.8135048287
C        2.1672299781   -0.4476000527    2.1078303044
C        2.6777235533   -1.8741125724    0.2022161639
C        0.8016157297   -0.6344934361    1.8728748168
C        5.6259385708   -2.8339611152   -1.9283412502
C        4.9364443295   -2.0309410662   -0.8291407602
N        3.5859560076   -2.5493373284   -0.5928786658
N       -0.1724071419    0.0126340162    2.7393028913
O       -1.3757392407   -0.1818062515    2.5102948663
O        0.2510737428    0.7248319459    3.6620622067
H        0.9500405170   -2.6730688172   -0.8356406942
H        4.1558109018   -0.9208492828    1.4768709980
H       -0.7045456598   -1.5649663583    0.6505755379
H        2.4825041889    0.1753525676    2.9369347895
H        5.6875850402   -3.8927972113   -1.6581828395
H        5.0867433877   -2.7501821142   -2.8792579944
H        6.6413267270   -2.4613043529   -2.0893201269
H        4.9027018502   -0.9645758080   -1.0971848918
H        5.5161778999   -2.1145453171    0.0964254582
H        3.1654808800   -2.9570941260   -1.4208389326
22   
Generated by ForceBalance from scan.xyz: Frame 11 of 24
C        1.2574717267   -2.0495956773   -0.0218727746
C        3.0718622772   -0.9716172594    1.1917432707
C        0.3336405739   -1.4680095693    0.8289220302
C        2.1444150674   -0.3896609604    2.0468795229
C        2.6466372833   -1.8168974524    0.1395637079
C        0.7806931453   -0.6371778293    1.8662893678
C        5.6472796760   -2.8662821774   -1.8816678017
C        4.9474257629   -2.0546656587   -0.7951856153
N        3.5427769106   -2.4396834613   -0.6991864938
N       -0.1861003641   -0.0241057481    2.7626483707
O       -1.3886031526   -0.2655284242    2.5758666595
O        0.2404324537    0.7095124199    3.6675808507
H        0.9162084216   -2.6987738175   -0.8251532210
H        4.1264945806   -0.7695614467    1.3396418127
H       -0.7290338229   -1.6431947476    0.7075746055
H        2.4627354856    0.2593767733    2.8545866778
H        5.5840001506   -3.9384821466   -1.6708369856
H        5.2016227295   -2.6793987425   -2.8655889079
H        6.7037908065   -2.5903073018   -1.9385852279
H        5.0437516141   -0.9785006139   -1.0042131550
H        5.4328640084   -2.2414396016    0.1695224340
H        3.1438824202   -2.8318292357   -1.5432211100
22   
Generated by ForceBalance from scan.xyz: Frame 12 of 24
C        1.3039357216   -1.9998436464    0.0257501709
C        3.1714225481   -0.8803460858    1.1202260681
C        0.4247096760   -1.4222722562    0.9242071807
C        2.2858216448   -0.3017000376    2.0198897020
C        2.6973931471   -1.7421912546    0.1009606744
C        0.9170338531   -0.5698469989    1.9236242564
C        5.6123812678   -2.9245821632   -1.9734474351
C        4.9906258735   -2.1369962175   -0.8235498094
N        3.5474406798   -2.3239855038   -0.8003767940
N       -0.0040136382    0.0379618668    2.8683088142
O       -1.2121539715   -0.2214754655    2.7531127229
O        0.4626465551    0.7877273576    3.7401972545
H        0.9255222173   -2.6613429851   -0.7504187016
H        4.2305204546   -0.6659562844    1.2066486574
H       -0.6400991245   -1.6168554810    0.8693468296
H        2.6413094764    0.3587467999    2.8024382213
H        5.4137460552   -3.9969319952   -1.8699450760
H        5.2185432805   -2.5892372213   -2.9389097151
H        6.6964694363   -2.7838015969   -1.9845692963
H        5.2244031273   -1.0695711765   -0.9355789510
H        5.4265242034   -2.4646007128    0.1304871740
H        3.1451311668   -2.9461876028   -1.4876378132
22   
Generated by ForceBalance from scan.xyz: Frame 13 of 24
C        1.3393095266   -1.9507429213    0.0245427742
C        3.2203486660   -0.7818420415    1.0342753776
C        0.4823892758   -1.3886199381    0.9548786765
C        2.3595236658   -0.2163498307    1.9666102460
C        2.7268085513   -1.6602589860    0.0406608600
C        0.9953017349   -0.5181323563    1.9271513957
C        5.6172928611   -2.9722912110   -1.9872023382
C        5.0044873104   -2.1947638353   -0.8257804280
N        3.5479175636   -2.2046343358   -0.9205654216
N        0.0985572583    0.0744981995    2.9063567834
O       -1.1066488944   -0.2124847854    2.8408502219
O        0.5837364134    0.8367548658    3.7564242926
H        0.9448251443   -2.6230671153   -0.7340765358
H        4.2766014735   -0.5420909244    1.0768757983
H       -0.5785818061   -1.6097940267    0.9454456149
H        2.7311270431    0.4567258159    2.7306950336
H        5.3129070757   -4.0250834655   -1.9643170152
H        5.3131615093   -2.5445173620   -2.9477773828
H        6.7087246094   -2.9411398363   -1.9292307861
H        5.3551279653   -1.1567122348   -0.8561164203
H        5.3358400299   -2.6215777837    0.1328696665
H        3.1530452628   -2.9814665951   -1.4362300774
22   
Generated by ForceBalance from scan.xyz: Frame 14 of 24
C        2.4220145164    0.0126443352    0.0243454070
C        2.4871677412   -2.0945319700    1.2373680438
C        1.3740078265    0.4473041157    0.8193051060
C        1.4337444008   -1.6621222394    2.0327116766
C        2.9992400842   -1.2666965995    0.2114624154
C        0.8800810316   -0.3953554923    1.8237335832
C        5.4823233039   -3.1712254615   -1.8775452695
C        4.3764500031   -3.0565513927   -0.8323791012
N        4.0883728336   -1.6473528459   -0.5509598409
N       -0.2227922590    0.0541708864    2.6599954253
O       -0.6846628236    1.1866162229    2.4537022966
O       -0.6422965161   -0.7169678677    3.5360659091
H        2.8090009262    0.6626508596   -0.7573189051
H        2.9145244293   -3.0757592795    1.4114010291
H        0.9267965390    1.4239922084    0.6751707641
H        1.0349380606   -2.2917555394    2.8197205811
H        5.1791741627   -2.7169752997   -2.8282196136
H        6.3965491798   -2.6769066205   -1.5344374333
H        5.7125584797   -4.2225236111   -2.0713982513
H        4.7022926035   -3.5443223192    0.0925620321
H        3.4704530571   -3.5786912858   -1.1741326676
H        4.2507625967   -1.0422724962   -1.3484757136
22   
Generated by ForceBalance from scan.xyz: Frame 15 of 24
C        2.4206165472   -0.0250590075    0.0055213958
C        2.5855449787   -2.0514336731    1.3349421653
C        1.3709320963    0.4179787509    0.7974615156
C        1.5281125775   -1.6178679713    2.1231651289
C        3.0445096684   -1.2694212525    0.2506225982
C        0.9242311154   -0.3852236948    1.8524861032
C        5.4884460829   -3.1795790443   -1.8874911565
C        4.2980819692   -3.0503641388   -0.9417232357
N        4.1518359041   -1.6547918097   -0.4982647869
N       -0.1823828269    0.0709659325    2.6835201106
O       -0.6860118175    1.1743290187    2.4266309190
O       -0.5626897635   -0.6686383333    3.6028584501
H        2.7672620374    0.5925982126   -0.8201019778
H        3.0637481205   -2.9984062441    1.5613709604
H        0.8857654245    1.3684607445    0.6080778305
H        1.1701674702   -2.2133025884    2.9551049973
H        5.3489623230   -2.5695500218   -2.7879930227
H        6.4125454967   -2.8603641900   -1.3961231546
H        5.6073902343   -4.2186160676   -2.2077251740
H        4.4638496807   -3.6840939142   -0.0655140547
H        3.3781349702   -3.4041182594   -1.4302597332
H        4.3266776465   -1.0107796859   -1.2641245664
22   
Generated by ForceBalance from scan.xyz: Frame 16 of 24
C        2.3519632875   -0.0735164439   -0.0549515865
C        2.6460572524   -1.9894037780    1.4056227761
C        1.2844230659    0.3629189848    0.7211785925
C        1.5695896877   -1.5703767380    2.1749618838
C        3.0449961514   -1.2598184309    0.2640331287
C        0.8931572440   -0.3948486201    1.8281029289
C        5.5181635731   -3.2255144072   -1.7985280095
C        4.2002094765   -2.9947296229   -1.0654851998
N        4.1773226400   -1.6468089736   -0.4642567454
N       -0.2332044462    0.0523515812    2.6418608788
O       -0.7977805299    1.1079943534    2.3220161133
O       -0.5647337414   -0.6481497694    3.6086134405
H        2.6537656785    0.5050216734   -0.9252604281
H        3.1960088259   -2.8802645525    1.6920759860
H        0.7439507087    1.2700853802    0.4770856311
H        1.2571417954   -2.1245258070    3.0524440266
H        5.6471587961   -2.5098946339   -2.6192901198
H        6.3656416393   -3.1171955214   -1.1153155278
H        5.5427077549   -4.2306971203   -2.2300124317
H        4.0900862717   -3.7322094335   -0.2660316027
H        3.3499191362   -3.1328371468   -1.7505284541
H        4.3905732345   -0.9541600012   -1.1781231596
22   
Generated by ForceBalance from scan.xyz: Frame 17 of 24
C        2.3501981118   -0.1504789202   -0.0763436091
C        2.7271917125   -1.9501194555    1.5056034200
C        1.2535552771    0.2806382849    0.6653259499
C        1.6219872914   -1.5427747492    2.2412244752
C        3.0948988337   -1.2763656052    0.3230208964
C        0.8925044618   -0.4272541284    1.8133894375
C        5.4883943981   -3.2649799781   -1.8051590577
C        4.1547347939   -2.9359549442   -1.1418434089
N        4.2579461004   -1.6776082815   -0.3693375896
N       -0.2651508987    0.0139999173    2.5920479343
O       -0.8774222347    1.0173382104    2.2024145124
O       -0.5697728083   -0.6408463595    3.5977497330
H        2.6317562175    0.3860706849   -0.9796310630
H        3.3294190997   -2.7876996893    1.8448167463
H        0.6707166284    1.1431649597    0.3637585664
H        1.3303553860   -2.0531787930    3.1517407463
H        5.7855498319   -2.4793782187   -2.5101194759
H        6.2787167921   -3.3656962891   -1.0556299820
H        5.4150146301   -4.2019137492   -2.3659368836
H        3.8745087854   -3.7354501188   -0.4495523612
H        3.3555879977   -2.8714352502   -1.8966651806
H        4.5447821222   -0.9360151516   -1.0058317487
22   
Generated by ForceBalance from scan.xyz: Frame 18 of 24
C        2.3589890224   -0.2475726707   -0.0846870264
C        2.7997972470   -1.9025019659    1.6309559896
C        1.2383742950    0.1928470586    0.6164958829
C        1.6721357076   -1.4878442081    2.3315614028
C        3.1455804063   -1.3050018492    0.4057588422
C        0.9021855857   -0.4411814002    1.8140144167
C        5.4351336909   -3.2544401375   -1.8627169097
C        4.1192389025   -2.8606151310   -1.1993467927
N        4.3295873632   -1.7356998721   -0.2573627204
N       -0.2819264499    0.0098376280    2.5530344500
O       -0.9332342841    0.9511052582    2.0827481560
O       -0.5651533894   -0.5779374749    3.6042598166
H        2.6267576539    0.2295704237   -1.0247329139
H        3.4371431959   -2.6878851382    2.0262147959
H        0.6221100064    1.0053359998    0.2495709277
H        1.3938670667   -1.9393877195    3.2766628516
H        5.8486931418   -2.4239362756   -2.4473438169
H        6.1756958094   -3.5422884326   -1.1109298464
H        5.2823915918   -4.0962847812   -2.5453304107
H        3.7197112570   -3.7032482642   -0.6257833838
H        3.3654139891   -2.6080555174   -1.9622769531
H        4.7025152283   -0.9530356165   -0.7940155308
22   
Generated by ForceBalance from scan.xyz: Frame 19 of 24
C        2.2205024225   -0.3840728512   -0.1868030371
C        2.8545255896   -1.6765992310    1.7662371527
C        1.0666378056    0.0387521238    0.4609684925
C        1.7126252995   -1.2412147531    2.4331666518
C        3.1366696371   -1.2385678732    0.4581665426
C        0.8250384584   -0.3904423008    1.7709019803
C        5.3684495465   -3.0339054164   -1.9892542643
C        4.0548401254   -2.6711977479   -1.3039671494
N        4.2864121082   -1.6705021806   -0.2387407330
N       -0.3852799992    0.0586000026    2.4607659259
O       -1.1648403777    0.7948590019    1.8418956734
O       -0.5644441652   -0.3242644412    3.6245824519
H        2.4396546582   -0.0380783492   -1.1925644052
H        3.5402646111   -2.3588993375    2.2635260631
H        0.3601651159    0.7046445842   -0.0207733882
H        1.4887455288   -1.5660093555    3.4426232206
H        5.8360129126   -2.1456480075   -2.4238666253
H        6.0764935796   -3.4794351646   -1.2803123290
H        5.1941664086   -3.7641766298   -2.7855339901
H        3.5705343187   -3.5733283838   -0.8980555338
H        3.3614095691   -2.2377354843   -2.0304677968
H        4.9565723545   -2.0573708961    0.4234908332
22   
Generated by ForceBalance from scan.xyz: Frame 20 of 24
C        2.1587232039   -0.5020906202   -0.1963848080
C        2.8570664436   -1.6419998924    1.8294694808
C        1.0227156595   -0.0391613470    0.4535582153
C        1.7316770156   -1.1667467061    2.4933086021
C        3.1017890569   -1.3036581894    0.4822906742
C        0.8175980551   -0.3708709858    1.7978058522
C        5.4155019439   -3.0106302804   -1.9583191696
C        4.0620915489   -2.6009711656   -1.3857562544
N        4.2461037594   -1.7652176350   -0.1827658875
N       -0.3741086865    0.1197229466    2.4846377512
O       -1.1752618308    0.8074758463    1.8365658185
O       -0.5199066604   -0.1780674943    3.6784435104
H        2.3367991226   -0.2247972577   -1.2305954566
H        3.5616099655   -2.2805769927    2.3576459712
H        0.2984962465    0.5851430241   -0.0567561859
H        1.5394317370   -1.4195965732    3.5295402835
H        6.0094073453   -2.1292691538   -2.2175044549
H        5.9872250287   -3.6086214311   -1.2386168380
H        5.2796596679   -3.6181638947   -2.8581379212
H        3.4566811198   -3.4907787192   -1.1544131248
H        3.5084469920   -2.0214986594   -2.1291423789
H        4.8617931819   -2.2445868871    0.4698684452
22   
Generated by ForceBalance from scan.xyz: Frame 21 of 24
C        2.0696708905   -0.6196741041   -0.2108924388
C        2.8758432522   -1.5954483822    1.8624745678
C        0.9445734942   -0.1469346355    0.4513975432
C        1.7593098606   -1.1144200015    2.5316546144
C        3.0653819862   -1.3413184253    0.4851005882
C        0.7950679475   -0.3916325627    1.8206574614
C        5.4334709586   -3.0400378370   -1.9010917251
C        4.0873553003   -2.4571732056   -1.4812390102
N        4.2038932258   -1.8079241927   -0.1656402275
N       -0.3857100243    0.1059730495    2.5152015277
O       -1.2305309870    0.7271878101    1.8541280072
O       -0.4817445001   -0.1164827111    3.7310081065
H        2.1884505791   -0.4154626678   -1.2696252396
H        3.6203166608   -2.1724015403    2.4066919582
H        0.1808942149    0.4145080378   -0.0742900266
H        1.6113731332   -1.3047670163    3.5883316789
H        6.1988288878   -2.2592637276   -1.9446520993
H        5.7690593483   -3.8123753727   -1.1987314075
H        5.3545185439   -3.5035137341   -2.8886710901
H        3.3167930052   -3.2422309287   -1.4611712478
H        3.7716258915   -1.7122879174   -2.2173546343
H        4.7870495236   -2.3574739939    0.4586254978
22   
Generated by ForceBalance from scan.xyz: Frame 22 of 24
C        1.9938899448   -0.7568312791   -0.2033916036
C        2.8816288714   -1.5771807583    1.9064597654
C        0.8746402189   -0.2707423840    0.4600719290
C        1.7681675163   -1.0883849059    2.5708686515
C        3.0274486632   -1.4085547501    0.5085262909
C        0.7650785344   -0.4336762416    1.8444611023
C        5.4283098212   -3.0350833115   -1.8862445319
C        4.1245781185   -2.3293427964   -1.5247684276
N        4.1605660545   -1.8802387751   -0.1297587884
N       -0.4088762292    0.0754621536    2.5382247490
O       -1.2857684561    0.6364165976    1.8641775282
O       -0.4711235420   -0.0786344428    3.7672800306
H        2.0727857057   -0.6230204342   -1.2765204847
H        3.6586568257   -2.0933351145    2.4660275063
H        0.0816469786    0.2344831389   -0.0791816806
H        1.6536839618   -1.2144008677    3.6412125376
H        6.2853167406   -2.3695694614   -1.7429465754
H        5.5788792201   -3.9305468464   -1.2718440364
H        5.4102711086   -3.3507682695   -2.9330647435
H        3.2667371527   -2.9966043647   -1.6953527929
H        3.9930709981   -1.4589185307   -2.1764477335
H        4.7323469308   -2.4725187301    0.4624950199
22   
Generated by ForceBalance from scan.xyz: Frame 23 of 24
C        1.9456104547   -0.8850287254   -0.2220869243
C        2.8712979287   -1.5709178585    1.9218964458
C        0.8522736110   -0.3336280059    0.4342361797
C        1.7811690195   -1.0228591670    2.5754411641
C        2.9825496564   -1.5102781696    0.5099673087
C        0.7707303246   -0.4013413573    1.8279227388
C        5.4687412671   -2.9938824687   -1.8993706298
C        4.1539352074   -2.3060009207   -1.5429728784
N        4.0939198098   -2.0370067893   -0.1091542870
N       -0.3767505444    0.1749670992    2.5102932312
O       -1.2568151874    0.7123176242    1.8205849324
O       -0.4162960739    0.0998218326    3.7479879306
H        1.9959081518   -0.8290932666   -1.3034302994
H        3.6590574338   -2.0513813004    2.4978719917
H        0.0549011877    0.1476153371   -0.1203336962
H        1.6935628199   -1.0675326703    3.6547935848
H        6.3243890377   -2.3732255506   -1.6152779250
H        5.5596885156   -3.9622502532   -1.3937431652
H        5.5205165639   -3.1761894963   -2.9762697806
H        3.3023686351   -2.9272606349   -1.8591533101
H        4.0806463202   -1.3565576170   -2.0854352004
H        4.6541265637   -2.6538116640    0.4663823965
22   
Generated by ForceBalance from scan.xyz: Frame 24 of 24
C        1.8420923684   -1.0125397657   -0.1342835269
C        2.8677502679   -1.6410316573    1.9845573210
C        0.7782843422   -0.4483655495    0.5572647997
C        1.8065834487   -1.0785331595    2.6712096226
C        2.9119163593   -1.6218159492    0.5663861707
C        0.7592009548   -0.4803918178    1.9549891487
C        5.4371700910   -2.9148020250   -1.9132939858
C        4.1288359983   -2.2250390675   -1.5370083445
N        3.9731274494   -2.1839288304   -0.0903791876
N       -0.3562752099    0.1111980374    2.6728990519
O       -1.2668389163    0.6331064262    2.0105838546
O       -0.3421027386    0.0645378925    3.9130306961
H        1.8451977378   -0.9824643084   -1.2178747030
H        3.6819652521   -2.1053239792    2.5365247414
H       -0.0437229903    0.0194602460    0.0277002093
H        1.7702024929   -1.0916480653    3.7543630741
H        6.2980270112   -2.3813147672   -1.4960309732
H        5.4575261649   -3.9476619811   -1.5489730947
H        5.5516349073   -2.9398684621   -3.0002650895
H        3.2825771824   -2.7607557533   -1.9887755761
H        4.1176416293   -1.2036591037   -1.9411520591
H        4.6983118219   -2.6088967713    0.4707225740
