16   
Generated by ForceBalance from scan.xyz: Frame 1 of 24
C        1.8943217044   -1.0423738600   -0.1026526967
C        0.8096578072   -0.4559491957    0.5590380718
C        2.9363365390   -1.6326789529    0.6131019374
C        1.8055574486   -1.0333502650    2.6788806041
C        0.7522936022   -0.4502179442    1.9595758379
C        2.8877489357   -1.6193518365    2.0116043936
C       -0.4306661558    0.1478422482    2.6867885564
O        3.9381943378   -2.1986992453    2.6882670717
H        1.9274102532   -1.0431258364   -1.1893039764
H        0.0053960920   -0.0017898301   -0.0145500338
H        3.7823201829   -2.0963806763    0.1146536849
H        1.7844575053   -1.0245815905    3.7687457451
H       -1.2009932846   -0.6112510509    2.8696763611
H       -0.1395889391    0.5604077618    3.6576448329
H       -0.8923089944    0.9492053064    2.1026994995
H        3.6790139368   -2.3365800010    3.6128209639
16   
Generated by ForceBalance from scan.xyz: Frame 2 of 24
C        1.8917713835   -1.0431875596   -0.0968886098
C        0.8027356905   -0.4617036146    0.5610049116
C        2.9399128918   -1.6179930423    0.6240037880
C        1.8105232720   -1.0039882971    2.6850624922
C        0.7484427917   -0.4421271665    1.9619459847
C        2.8969379355   -1.5862607106    2.0215936149
C       -0.4390750853    0.1519051263    2.6849614882
O        3.9576011052   -2.1424786447    2.7093061914
H        1.9211373626   -1.0570575799   -1.1835491024
H       -0.0077987196   -0.0223520925   -0.0154764640
H        3.7875792868   -2.0824977547    0.1292066874
H        1.7974588815   -0.9780592221    3.7742678923
H       -1.1989528416   -0.6139508802    2.8828315478
H       -0.1489290613    0.5827400261    3.6480891028
H       -0.9133998253    0.9384470956    2.0909490236
H        3.6364539716   -2.4861517901    3.5573485508
16   
Generated by ForceBalance from scan.xyz: Frame 3 of 24
C        1.8938131177   -1.0499968505   -0.0911177229
C        0.8011204570   -0.4723834066    0.5630190386
C        2.9479797242   -1.6075975718    0.6362049639
C        1.8173807286   -0.9787933387    2.6917257355
C        0.7484018705   -0.4363935920    1.9642282933
C        2.9072939188   -1.5586737029    2.0324701232
C       -0.4432079365    0.1568537779    2.6811789045
O        3.9766992936   -2.0906582620    2.7358408195
H        1.9209208869   -1.0755460347   -1.1776287125
H       -0.0144595763   -0.0469398891   -0.0169982712
H        3.7996320021   -2.0698956161    0.1461569094
H        1.8116354592   -0.9382603173    3.7799207727
H       -1.1983218827   -0.6118462269    2.8861977115
H       -0.1557331927    0.5983493029    3.6401929405
H       -0.9225498830    0.9348149305    2.0798618765
H        3.6348632656   -2.6299409234    3.4654457038
16   
Generated by ForceBalance from scan.xyz: Frame 4 of 24
C        1.8930148754   -1.0577718947   -0.0805221124
C        0.7967180060   -0.4814313543    0.5680837335
C        2.9506861206   -1.5990119078    0.6552639085
C        1.8127432648   -0.9567680818    2.7033482881
C        0.7414160038   -0.4285687945    1.9690085661
C        2.9057738420   -1.5364669012    2.0503424202
C       -0.4543355921    0.1672219323    2.6769770433
O        3.9792067142   -2.0456063760    2.7736616342
H        1.9215060032   -1.0924587486   -1.1667506908
H       -0.0207664666   -0.0669266292   -0.0173484171
H        3.8088422907   -2.0561230492    0.1715176324
H        1.8104069483   -0.9062367531    3.7905859912
H       -1.2049083795   -0.6030930784    2.8923487221
H       -0.1697346552    0.6232706873    3.6299646688
H       -0.9381964192    0.9340419987    2.0650135879
H        3.6596355967   -2.7576820287    3.3487727112
16   
Generated by ForceBalance from scan.xyz: Frame 5 of 24
C        1.8868833068   -1.0663536428   -0.0657191266
C        0.7870096137   -0.4872527828    0.5742012154
C        2.9448558971   -1.5949848496    0.6795174663
C        1.7957839675   -0.9423161309    2.7165690611
C        0.7268136714   -0.4200234962    1.9744045258
C        2.8914161005   -1.5266359091    2.0739402271
C       -0.4713648996    0.1825850095    2.6725177164
O        3.9645331440   -2.0125817888    2.8205165110
H        1.9208825692   -1.1067752777   -1.1515893781
H       -0.0287549860   -0.0788983327   -0.0180819146
H        3.8103747979   -2.0446246944    0.2015865173
H        1.7926354331   -0.8866037890    3.8030485434
H       -1.2198594660   -0.5865711882    2.8989526764
H       -0.1884001462    0.6531051468    3.6188946617
H       -0.9571077976    0.9390010963    2.0491778445
H        3.7135054290   -2.8627006493    3.2134429432
16   
Generated by ForceBalance from scan.xyz: Frame 6 of 24
C        1.8856818157   -1.0783852651   -0.0520545806
C        0.7835540667   -0.4933015141    0.5788125008
C        2.9419014543   -1.5976259985    0.7021695440
C        1.7810352277   -0.9358936049    2.7291858420
C        0.7179741559   -0.4140314609    1.9779918431
C        2.8776789672   -1.5272730382    2.0966465877
C       -0.4815219758    0.1971766420    2.6662668025
O        3.9459264869   -1.9914477506    2.8658635826
H        1.9264516385   -1.1230453644   -1.1375279281
H       -0.0285871417   -0.0877005201   -0.0203623817
H        3.8138016688   -2.0402506390    0.2287098708
H        1.7739305131   -0.8787256611    3.8152294095
H       -1.2313797710   -0.5687500890    2.8989895230
H       -0.2003656319    0.6771715347    3.6083825817
H       -0.9648260029    0.9474240066    2.0336270628
H        3.8062739566   -2.9304139107    3.0637103267
16   
Generated by ForceBalance from scan.xyz: Frame 7 of 24
C        1.8847012189   -1.0895524820   -0.0378548460
C        0.7816200623   -0.4956090909    0.5832676208
C        2.9360452641   -1.6057082776    0.7248299033
C        1.7631121773   -0.9354924517    2.7420138121
C        0.7092871122   -0.4084840508    1.9814747592
C        2.8598604293   -1.5361642014    2.1196900394
C       -0.4907555959    0.2121496999    2.6602240139
O        3.9170026934   -1.9850098097    2.9100106500
H        1.9335641584   -1.1370924419   -1.1228761971
H       -0.0247321560   -0.0887821685   -0.0227733280
H        3.8117609453   -2.0451144371    0.2545923412
H        1.7486969090   -0.8799911138    3.8278319714
H       -1.2436051356   -0.5496520488    2.8967073096
H       -0.2114189435    0.6989928680    3.5993537955
H       -0.9695255180    0.9584252313    2.0194943697
H        3.9179630173   -2.9547036271    2.9139619830
16   
Generated by ForceBalance from scan.xyz: Frame 8 of 24
C        1.8865154229   -1.1010820053   -0.0239832383
C        0.7836823921   -0.4969243604    0.5873932646
C        2.9310924108   -1.6188140604    0.7465668487
C        1.7480805236   -0.9379946546    2.7547193625
C        0.7047366504   -0.4044559449    1.9849698780
C        2.8444225053   -1.5486768350    2.1416826355
C       -0.4957771311    0.2250504848    2.6545539935
O        3.8854644850   -1.9915315617    2.9498779933
H        1.9429409102   -1.1524225567   -1.1084676652
H       -0.0163088753   -0.0872514711   -0.0249596228
H        3.8077298390   -2.0602388344    0.2788779406
H        1.7249793176   -0.8840170342    3.8403113462
H       -1.2564514787   -0.5312186760    2.8835487996
H       -0.2205100509    0.7084035401    3.5966547759
H       -0.9632083934    0.9757496767    2.0106087365
H        4.0399142806   -2.9329194897    2.7761750927
16   
Generated by ForceBalance from scan.xyz: Frame 9 of 24
C        1.8825141463   -1.1082023411   -0.0156940880
C        0.7825648867   -0.4928383149    0.5886732803
C        2.9173250827   -1.6376920530    0.7601603845
C        1.7280121527   -0.9488097625    2.7622251032
C        0.6965027674   -0.4031669703    1.9864257603
C        2.8228896687   -1.5697673483    2.1554030891
C       -0.5023402541    0.2357031671    2.6500851625
O        3.8418038053   -2.0252301087    2.9763462044
H        1.9459660829   -1.1596840717   -1.0997693923
H       -0.0095092525   -0.0743975077   -0.0277927623
H        3.7900904275   -2.0883084674    0.2927038698
H        1.6963632087   -0.8999141569    3.8477873419
H       -1.2667134908   -0.5160140185    2.8816352903
H       -0.2268276517    0.7229089749    3.5901537094
H       -0.9649338756    0.9848512777    2.0009031858
H        4.1474526093   -2.8861038620    2.6509271625
16   
Generated by ForceBalance from scan.xyz: Frame 10 of 24
C        1.8848708519   -1.1145013889   -0.0054343462
C        0.7871790561   -0.4893689987    0.5917232396
C        2.9092181916   -1.6561338291    0.7762055074
C        1.7150154491   -0.9564381294    2.7718178757
C        0.6939938017   -0.4022859276    1.9897397101
C        2.8093484685   -1.5860766576    2.1711322722
C       -0.5041526483    0.2444940618    2.6469323895
O        3.8045066060   -2.0610438079    3.0021789427
H        1.9545454920   -1.1679050481   -1.0890071863
H        0.0025656247   -0.0633855672   -0.0289056322
H        3.7767981045   -2.1194277052    0.3101731350
H        1.6756702925   -0.9089441973    3.8571667344
H       -1.2765859915   -0.5017397282    2.8692114896
H       -0.2318320892    0.7253936726    3.5911550605
H       -0.9551943888    1.0001927380    1.9972097896
H        4.2549118418   -2.7992876125    2.5630746522
16   
Generated by ForceBalance from scan.xyz: Frame 11 of 24
C        1.8831726065   -1.1178197838   -0.0014412929
C        0.7891933631   -0.4835964344    0.5918937563
C        2.8964322011   -1.6770210697    0.7826315260
C        1.7019916147   -0.9686125342    2.7757039875
C        0.6903466873   -0.4036108757    1.9904529878
C        2.7943170212   -1.6054095995    2.1772352388
C       -0.5052086369    0.2509289017    2.6446162135
O        3.7649744541   -2.1110318676    3.0135994397
H        1.9569238992   -1.1703820991   -1.0847476871
H        0.0120726600   -0.0468641480   -0.0305661631
H        3.7559103612   -2.1562636315    0.3166526428
H        1.6578220572   -0.9238496105    3.8609882866
H       -1.2846017160   -0.4898955722    2.8605357968
H       -0.2333183727    0.7261316628    3.5918425249
H       -0.9470072692    1.0126344513    1.9955651234
H        4.3463922573   -2.6955311690    2.5024103301
16   
Generated by ForceBalance from scan.xyz: Frame 12 of 24
C        1.8800885629   -1.1191021173   -0.0023808414
C        0.7908861686   -0.4771801209    0.5909749674
C        2.8822171310   -1.6973583367    0.7824022018
C        1.6915208264   -0.9821974868    2.7750851838
C        0.6868326716   -0.4056565152    1.9898634476
C        2.7811954689   -1.6246054581    2.1769284061
C       -0.5050628222    0.2561305529    2.6434633749
O        3.7293080142   -2.1660800236    3.0147196280
H        1.9558433779   -1.1691062005   -1.0856686562
H        0.0205718617   -0.0287387615   -0.0315415157
H        3.7318242509   -2.1937986377    0.3159388306
H        1.6453756025   -0.9405555538    3.8603927826
H       -1.2917617772   -0.4789897422    2.8522790904
H       -0.2324689272    0.7234193978    3.5944144891
H       -0.9376401854    1.0254882771    1.9972344863
H        4.4257892124   -2.5755420835    2.4776839474
16   
Generated by ForceBalance from scan.xyz: Frame 13 of 24
C        1.9544860231   -0.9934615960    0.0015127318
C        0.8309563559   -0.4121896128    0.5938170342
C        2.9362269835   -1.6085723634    0.7838427327
C        1.6613987539   -1.0434458933    2.7730870221
C        0.6728562709   -0.4374384837    1.9890060115
C        2.7864179644   -1.6219543290    2.1758869540
C       -0.5564917832    0.1564023688    2.6383456089
O        3.7031323851   -2.2236795377    3.0094585661
H        2.0694428417   -0.9724160309   -1.0792780502
H        0.0752023436    0.0627941643   -0.0269275315
H        3.8064148923   -2.0687908004    0.3185692743
H        1.5758743261   -1.0724934189    3.8564134668
H       -1.3363094475   -0.6047705959    2.7625598288
H       -0.3309247846    0.5592472184    3.6301987661
H       -0.9781422288    0.9625262102    2.0308424012
H        4.5180865925   -2.3916359677    2.5108161586
16   
Generated by ForceBalance from scan.xyz: Frame 14 of 24
C        1.9526001156   -0.9965690398   -0.0023195998
C        0.8348609942   -0.4073462409    0.5941600732
C        2.9253662553   -1.6302050398    0.7760709218
C        1.6582270945   -1.0607013128    2.7682962980
C        0.6738817842   -0.4410624148    1.9883081540
C        2.7781467532   -1.6446309287    2.1684500116
C       -0.5504483967    0.1595397904    2.6408863147
O        3.6817841678   -2.2827767815    2.9947255270
H        2.0660626601   -0.9716989696   -1.0832185508
H        0.0844548817    0.0795208777   -0.0239833970
H        3.7860697777   -2.1057471568    0.3096214627
H        1.5730630045   -1.0953383393    3.8514702339
H       -1.3373219483   -0.5953193042    2.7590553383
H       -0.3220835758    0.5530397976    3.6358528001
H       -0.9642207937    0.9739811830    2.0390570962
H        4.5575385477   -2.2622094549    2.5784000520
16   
Generated by ForceBalance from scan.xyz: Frame 15 of 24
C        1.9465734193   -0.9969343201   -0.0127514670
C        0.8356869813   -0.4014568025    0.5915220941
C        2.9143932199   -1.6457631929    0.7589688208
C        1.6583403860   -1.0764651675    2.7579934176
C        0.6758107984   -0.4433694307    1.9850215098
C        2.7715504349   -1.6645172522    2.1515725779
C       -0.5426973612    0.1619085031    2.6441274709
O        3.6712229590   -2.3327560093    2.9661593408
H        2.0554837928   -0.9672008805   -1.0940236202
H        0.0879308285    0.0957464976   -0.0217810682
H        3.7671680991   -2.1320152544    0.2903271613
H        1.5756757260   -1.1191326720    3.8410947399
H       -1.3343233827   -0.5882545955    2.7604850475
H       -0.3090415588    0.5483486541    3.6406539913
H       -0.9526807240    0.9825064520    2.0480775743
H        4.5730055129   -2.1296672325    2.6729137154
16   
Generated by ForceBalance from scan.xyz: Frame 16 of 24
C        1.9417795149   -1.0054789622   -0.0213497889
C        0.8393383820   -0.4012301613    0.5907110774
C        2.9054397302   -1.6674593546    0.7442096774
C        1.6610820256   -1.0972264852    2.7498246340
C        0.6819428380   -0.4487725448    1.9838651046
C        2.7658359266   -1.6924659101    2.1365300232
C       -0.5292817347    0.1640638675    2.6493935123
O        3.6680806901   -2.3837200830    2.9373726993
H        2.0460502443   -0.9711848371   -1.1029580542
H        0.0944588512    0.1063018325   -0.0178516750
H        3.7521239251   -2.1622322453    0.2747531541
H        1.5794561135   -1.1484405210    3.8326958277
H       -1.3307842840   -0.5769943227    2.7561479869
H       -0.2915334890    0.5353218245    3.6507078145
H       -0.9281955348    0.9971687402    2.0632070199
H        4.5552631077   -2.0162721051    2.8023262950
16   
Generated by ForceBalance from scan.xyz: Frame 17 of 24
C        1.9320644549   -1.0085850566   -0.0347827142
C        0.8374018852   -0.3992887961    0.5863733077
C        2.8985324622   -1.6776289141    0.7213994446
C        1.6667821827   -1.1116743032    2.7360409172
C        0.6875938292   -0.4509733179    1.9801565581
C        2.7639187448   -1.7112255152    2.1131282234
C       -0.5164306025    0.1656284692    2.6553292590
O        3.6789552404   -2.4133465019    2.8961499539
H        2.0295852354   -0.9690878251   -1.1168140406
H        0.0919239928    0.1152198408   -0.0157567585
H        3.7429803445   -2.1725961822    0.2490971185
H        1.5878276460   -1.1719883154    3.8188172401
H       -1.3206496343   -0.5719248494    2.7656780413
H       -0.2703703673    0.5333102798    3.6559980446
H       -0.9154704526    1.0021189899    2.0740659701
H        4.5057416816   -1.9088290972    2.9437525843
16   
Generated by ForceBalance from scan.xyz: Frame 18 of 24
C        1.9245741503   -1.0183367833   -0.0505750017
C        0.8388872374   -0.4051636027    0.5821627204
C        2.8957227493   -1.6891766094    0.6983386570
C        1.6790013612   -1.1284258932    2.7238016882
C        0.6998492616   -0.4571439556    1.9772501275
C        2.7668990432   -1.7338672210    2.0893082257
C       -0.4957104442    0.1653039885    2.6621403808
O        3.7029519463   -2.4352429465    2.8508331724
H        2.0150443245   -0.9740017998   -1.1330526094
H        0.0911621208    0.1147095395   -0.0126005563
H        3.7411217796   -2.1791268878    0.2234645043
H        1.6030346108   -1.1947662948    3.8066992985
H       -1.3074878169   -0.5645885829    2.7679493907
H       -0.2429081924    0.5210799251    3.6654344559
H       -0.8877105256    1.0113833128    2.0900105229
H        4.4243078872   -1.8345764834    3.0941854237
16   
Generated by ForceBalance from scan.xyz: Frame 19 of 24
C        1.9155817079   -1.0254272947   -0.0653903437
C        0.8361794916   -0.4110223700    0.5764423805
C        2.8960693709   -1.6923864065    0.6748405629
C        1.6945252235   -1.1361080986    2.7100466317
C        0.7109143685   -0.4611277218    1.9730464512
C        2.7763958494   -1.7439091060    2.0658801417
C       -0.4770944948    0.1636628942    2.6689591281
O        3.7332224370   -2.4381887532    2.8058062847
H        1.9984895142   -0.9782076139   -1.1483491374
H        0.0837702696    0.1098643738   -0.0114316943
H        3.7434907834   -2.1739278349    0.1955625622
H        1.6220475276   -1.2046135909    3.7934054145
H       -1.2900679081   -0.5640092452    2.7805571439
H       -0.2150113727    0.5175982580    3.6705699864
H       -0.8714791113    1.0115756158    2.1012242651
H        4.3173078215   -1.7985636549    3.2415582178
16   
Generated by ForceBalance from scan.xyz: Frame 20 of 24
C        1.9052904006   -1.0295448051   -0.0778939865
C        0.8292662334   -0.4168984043    0.5711855944
C        2.8974030239   -1.6872916227    0.6545218648
C        1.7104279767   -1.1330514294    2.6992503996
C        0.7193505030   -0.4617327246    1.9692580096
C        2.7883251977   -1.7405419845    2.0463435142
C       -0.4631915968    0.1623209965    2.6750459865
O        3.7656049208   -2.4209244806    2.7656073380
H        1.9802845078   -0.9828095064   -1.1614496972
H        0.0699263643    0.1002535034   -0.0108839908
H        3.7475642979   -2.1585248895    0.1702570058
H        1.6429756525   -1.1979615767    3.7836534761
H       -1.2729909694   -0.5671290558    2.7974805789
H       -0.1921446661    0.5210551438    3.6726196635
H       -0.8655552605    1.0069126509    2.1080265338
H        4.1921547199   -1.8015860334    3.3775369791
16   
Generated by ForceBalance from scan.xyz: Frame 21 of 24
C        1.8993658778   -1.0347810961   -0.0888774997
C        0.8245396297   -0.4254228478    0.5659649670
C        2.9032293368   -1.6813581462    0.6360063320
C        1.7312509593   -1.1253763097    2.6893796028
C        0.7298597095   -0.4632143144    1.9649771317
C        2.8066599160   -1.7310256199    2.0294771563
C       -0.4483285600    0.1584376999    2.6800344852
O        3.8019968941   -2.3947818350    2.7295338711
H        1.9659133569   -0.9914116860   -1.1731205160
H        0.0570663683    0.0846669547   -0.0114305619
H        3.7545704691   -2.1445246600    0.1462499651
H        1.6705161667   -1.1818269858    3.7752501083
H       -1.2532750356   -0.5742845819    2.8144061200
H       -0.1689361906    0.5238890401    3.6729159180
H       -0.8605411285    0.9980732413    2.1128088069
H        4.0654839598   -1.8530342195    3.4892249391
16   
Generated by ForceBalance from scan.xyz: Frame 22 of 24
C        1.8958110625   -1.0372665929   -0.0968325540
C        0.8198075226   -0.4329704518    0.5619216790
C        2.9109594168   -1.6707252551    0.6221038732
C        1.7526468555   -1.1090431875    2.6819531646
C        0.7384289108   -0.4619460993    1.9614064252
C        2.8279361440   -1.7106637515    2.0176979990
C       -0.4379515314    0.1546334782    2.6837422802
O        3.8394033473   -2.3548190653    2.7027173080
H        1.9534737022   -1.0010420618   -1.1818436232
H        0.0431446687    0.0662462981   -0.0124553608
H        3.7619431800   -2.1292802401    0.1274608267
H        1.7004721676   -1.1524814753    3.7694833173
H       -1.2348574164   -0.5841455413    2.8322388399
H       -0.1518595271    0.5309771279    3.6706835795
H       -0.8633899529    0.9858264821    2.1139360227
H        3.9444522315   -1.9384671738    3.5722449839
16   
Generated by ForceBalance from scan.xyz: Frame 23 of 24
C        1.8954397073   -1.0395909394   -0.1017408824
C        0.8170498278   -0.4409890285    0.5593204407
C        2.9206962048   -1.6590936007    0.6135299199
C        1.7746603382   -1.0874271802    2.6778603033
C        0.7468124080   -0.4597308692    1.9591107654
C        2.8512529209   -1.6839299834    2.0110233255
C       -0.4300766844    0.1504027240    2.6860018660
O        3.8770547248   -2.3072151808    2.6864816867
H        1.9440151713   -1.0141121622   -1.1874984456
H        0.0306948484    0.0445384468   -0.0134548491
H        3.7698886140   -2.1172301019    0.1154199808
H        1.7325953599   -1.1145083106    3.7668483333
H       -1.2185302898   -0.5950247696    2.8460743736
H       -0.1402925857    0.5372486585    3.6678142284
H       -0.8679370756    0.9730046874    2.1131976356
H        3.8376215184   -2.0534822654    3.6219352069
16   
Generated by ForceBalance from scan.xyz: Frame 24 of 24
C        1.8949827629   -1.0412939685   -0.1045927548
C        0.8137174044   -0.4486385784    0.5575365956
C        2.9294105699   -1.6465131319    0.6091454239
C        1.7940478700   -1.0620589534    2.6755771373
C        0.7525029763   -0.4561758898    1.9576617994
C        2.8728733310   -1.6533744039    2.0077409517
C       -0.4264287922    0.1471592764    2.6868927831
O        3.9122141125   -2.2545924176    2.6797289384
H        1.9346948615   -1.0287166854   -1.1909343125
H        0.0177371293    0.0215974491   -0.0146546839
H        3.7763034775   -2.1069180297    0.1092100834
H        1.7630372935   -1.0710576877    3.7654078818
H       -1.2065061077   -0.6049177865    2.8567622991
H       -0.1350532678    0.5441682087    3.6641522759
H       -0.8757148609    0.9611433172    2.1106489128
H        3.7495593429   -2.1897100891    3.6339765184
