15   
Generated by ForceBalance from scan.xyz: Frame 1 of 24
C        0.9034736819   -2.1707686800    4.6998067046
C        1.6321802300   -0.6161111660    2.9414650315
C        1.4139618066   -0.0337692345    1.6952798247
C       -0.6063163643   -1.3437574497    1.5436378316
C        0.6961415141   -1.5501755277    3.4091735985
C        0.2735488742   -0.4063615219    0.9756299927
C       -0.0752491334    0.1907189575   -0.3427288449
N        1.1084757616   -2.6458408878    5.7425311338
N       -0.4065685783   -1.9165981352    2.7307716002
O       -1.1636447128    0.0984704415   -0.8764030451
O        0.9570324904    0.8858384879   -0.8886027657
H        2.4980159173   -0.3625758558    3.5442959820
H        2.1094691391    0.6920450068    1.2872360015
H       -1.5032868736   -1.6335002091    1.0019372335
H        0.6257596237    1.2548260481   -1.7301624264
15   
Generated by ForceBalance from scan.xyz: Frame 2 of 24
C        0.9156572362   -2.1833920439    4.6890274326
C        1.6162680417   -0.5891179954    2.9558301391
C        1.3965447023   -0.0050249801    1.7104484929
C       -0.5844433145   -1.3686980433    1.5244167207
C        0.7042896122   -1.5566101825    3.4020736254
C        0.2794130074   -0.4078398043    0.9718696821
C       -0.0861736857    0.2226048827   -0.3271598173
N        1.1239154160   -2.6635222630    5.7287871000
N       -0.3791586702   -1.9486422738    2.7069554760
O       -1.2216275839    0.3220241968   -0.7486132714
O        0.9931685695    0.7295578616   -0.9784408592
H        2.4644496751   -0.3117445526    3.5731236717
H        2.0759520628    0.7439404533    1.3167667874
H       -1.4719258284   -1.6740521592    0.9752420742
H        0.6517854799    1.1566638522   -1.7880671116
15   
Generated by ForceBalance from scan.xyz: Frame 3 of 24
C        0.9189994334   -2.2017440451    4.6803357268
C        1.5972435940   -0.5670532512    2.9762938159
C        1.3794721082    0.0235494349    1.7333594915
C       -0.5598404841   -1.3910354194    1.5043334746
C        0.7083872414   -1.5664045026    3.3975275663
C        0.2875244917   -0.4044729738    0.9729307878
C       -0.0879457619    0.2607153636   -0.3077198069
N        1.1258480604   -2.6879666156    5.7175399721
N       -0.3530312861   -1.9804411918    2.6817156011
O       -1.2235335207    0.5601296634   -0.6171498610
O        0.9962550843    0.5652550760   -1.0665854805
H        2.4264000496   -0.2698743961    3.6099866231
H        2.0439626464    0.7958774084    1.3587805255
H       -1.4344375539   -1.7131201858    0.9435967763
H        0.6618449072    1.0442007590   -1.8501291277
15   
Generated by ForceBalance from scan.xyz: Frame 4 of 24
C        0.9165164291   -2.2296194596    4.6687888571
C        1.5673277365   -0.5430907832    3.0038805643
C        1.3490895325    0.0634277373    1.7685317965
C       -0.5406524043   -1.4044409651    1.4858677320
C        0.7047002377   -1.5769164238    3.3948992976
C        0.2835725979   -0.3844949704    0.9835732252
C       -0.0907087273    0.3079836493   -0.2867345627
N        1.1234945298   -2.7285912957    5.6998968722
N       -0.3326846844   -2.0086885542    2.6557041597
O       -1.1748586561    0.8112017551   -0.4973631698
O        0.9498193105    0.3826428245   -1.1542867785
H        2.3782055613   -0.2317645027    3.6541954825
H        1.9965453920    0.8623879245    1.4197743396
H       -1.3982883300   -1.7452912422    0.9097351634
H        0.6357262492    0.8949277908   -1.9256550366
15   
Generated by ForceBalance from scan.xyz: Frame 5 of 24
C        0.9974460818   -2.0635835135    4.7621024265
C        1.6822343045   -0.8683273807    2.7268606700
C        1.3484781213   -0.3413157306    1.4808860439
C       -0.9046530798   -1.0993886124    1.8650104634
C        0.6749052231   -1.5018588259    3.4682413142
C        0.0319138976   -0.4678047237    1.0323571374
C       -0.4155506540    0.1739873703   -0.2452017884
N        1.2996309567   -2.5026152751    5.7969537021
N       -0.5981233602   -1.6212566673    3.0531483982
O       -1.1012499237    1.1725224349   -0.3054101822
O        0.0828659749   -0.4592411053   -1.3347952128
H        2.6897973034   -0.7953100407    3.1228858304
H        2.0985817721    0.1535411564    0.8708002724
H       -1.9435783092   -1.1875281113    1.5535963501
H       -0.2255805508    0.0402370686   -2.1173296824
15   
Generated by ForceBalance from scan.xyz: Frame 6 of 24
C        0.9851554909   -2.1092119115    4.7362299046
C        1.6856939791   -0.8254040191    2.7608967261
C        1.3673709309   -0.2621763684    1.5267975039
C       -0.8676593053   -1.1101342076    1.8181145913
C        0.6789836855   -1.5118218847    3.4543812531
C        0.0657239051   -0.4058306886    1.0427487079
C       -0.3515421503    0.2197379234   -0.2552315288
N        1.2739531349   -2.5753179823    5.7630296410
N       -0.5775076191   -1.6563341649    2.9996736865
O       -0.8152416141    1.3348877606   -0.3630625135
O       -0.1500596638   -0.6126768813   -1.3045404968
H        2.6817149502   -0.7416436928    3.1830864400
H        2.1169387000    0.2791242937    0.9566455615
H       -1.8911873520   -1.2348369584    1.4698645570
H       -0.4483636127   -0.1358059956   -2.1051596222
15   
Generated by ForceBalance from scan.xyz: Frame 7 of 24
C        0.9718264642   -2.1360042647    4.7210730899
C        1.6873142132   -0.7865591517    2.7949453660
C        1.3835484962   -0.1990562258    1.5686463768
C       -0.8267854304   -1.1345204036    1.7706317296
C        0.6831230508   -1.5180489275    3.4449147210
C        0.0985997036   -0.3656288420    1.0483625614
C       -0.2860534537    0.2438005859   -0.2653866100
N        1.2456179767   -2.6168999013    5.7451544388
N       -0.5544396031   -1.6934016273    2.9504664381
O       -0.5135507683    1.4228286699   -0.4381224079
O       -0.4006692866   -0.6917657389   -1.2386925368
H        2.6701950262   -0.6882942849    3.2439368684
H        2.1279673202    0.3827601007    1.0327704828
H       -1.8300259845   -1.2976132418    1.3818667294
H       -0.6871028852   -0.2229198012   -2.0481112035
15   
Generated by ForceBalance from scan.xyz: Frame 8 of 24
C        0.9587762768   -2.1457480643    4.7164052037
C        1.6816648466   -0.7535386816    2.8245868346
C        1.3915812919   -0.1611932039    1.5978641758
C       -0.7918028725   -1.1749073986    1.7275919226
C        0.6832208375   -1.5229006974    3.4397292521
C        0.1258727876   -0.3629347966    1.0425293746
C       -0.2217642427    0.2338627636   -0.2833661500
N        1.2216270442   -2.6295682347    5.7419716879
N       -0.5348653247   -1.7333868553    2.9111320237
O       -0.2131101191    1.4230077381   -0.5278237780
O       -0.6227357635   -0.7089697648   -1.1713183455
H        2.6493393934   -0.6320681333    3.3001298353
H        2.1264139899    0.4534930841    1.0861759200
H       -1.7751412278   -1.3706656292    1.3054521471
H       -0.8813338899   -0.2344519969   -1.9863331596
15   
Generated by ForceBalance from scan.xyz: Frame 9 of 24
C        0.9555965633   -2.1470146071    4.7120530669
C        1.6724222411   -0.7221948346    2.8414936111
C        1.3871726019   -0.1337328971    1.6125129276
C       -0.7638151031   -1.2201088459    1.6918350941
C        0.6866805861   -1.5270235577    3.4325158976
C        0.1397420406   -0.3738131623    1.0291092818
C       -0.1808884522    0.2200969489   -0.3012251700
N        1.2120553700   -2.6263764295    5.7413289283
N       -0.5130621369   -1.7751965585    2.8787070259
O        0.0521498800    1.3709638787   -0.6139343593
O       -0.8292065951   -0.6552463981   -1.1098204532
H        2.6255945387   -0.5719888745    3.3377025030
H        2.1074343583    0.5089468543    1.1150179927
H       -1.7304977499   -1.4453983336    1.2478368053
H       -1.0472729542   -0.1689898121   -1.9291578444
15   
Generated by ForceBalance from scan.xyz: Frame 10 of 24
C        0.9547125414   -2.1429614552    4.7133195145
C        1.6591946682   -0.6906977275    2.8600994163
C        1.3794563916   -0.1127336191    1.6255960616
C       -0.7374825624   -1.2682399601    1.6625729024
C        0.6893119081   -1.5303957434    3.4294863010
C        0.1536768426   -0.3969754512    1.0148717323
C       -0.1477556060    0.1953918708   -0.3185391641
N        1.2077577860   -2.6151665503    5.7467410596
N       -0.4908294743   -1.8181138875    2.8531344045
O        0.2836446294    1.2634581368   -0.7077576213
O       -1.0038710897   -0.5673615180   -1.0439495745
H        2.5952866828   -0.5071812500    3.3772385814
H        2.0843147527    0.5542821782    1.1385295173
H       -1.6891101236   -1.5201112414    1.2017655550
H       -1.1755066280   -0.0796788953   -1.8729526799
15   
Generated by ForceBalance from scan.xyz: Frame 11 of 24
C        0.9475427645   -2.1406390826    4.7217766731
C        1.6430175421   -0.6664937218    2.8816503560
C        1.3706820972   -0.0992162742    1.6409966310
C       -0.7097131949   -1.3204094567    1.6370425147
C        0.6904104426   -1.5390607099    3.4310347417
C        0.1688102253   -0.4258777760    1.0033276672
C       -0.1234095110    0.1706242070   -0.3296256921
N        1.1933796447   -2.6026793066    5.7615199572
N       -0.4674332732   -1.8659048678    2.8308678005
O        0.4737091590    1.1201843372   -0.8001134491
O       -1.1526389372   -0.4434954542   -0.9657296573
H        2.5601931882   -0.4499425817    3.4195000061
H        2.0621897777    0.5886114618    1.1641461239
H       -1.6457436556   -1.5983199771    1.1603117232
H       -1.2798799490    0.0322838558   -1.8092406846
15   
Generated by ForceBalance from scan.xyz: Frame 12 of 24
C        0.9454079164   -2.1275269021    4.7179865804
C        1.6272357324   -0.6335391236    2.8886548338
C        1.3625305542   -0.0813643822    1.6396829333
C       -0.6790588762   -1.3664118611    1.6008146762
C        0.6945377162   -1.5380554747    3.4204346226
C        0.1865705432   -0.4519370127    0.9776987255
C       -0.1002387923    0.1373096520   -0.3596307054
N        1.1855241815   -2.5790751178    5.7636616212
N       -0.4396119724   -1.9048914170    2.7984865179
O        0.6252895770    0.9308312755   -0.9285695307
O       -1.2682360336   -0.3042280272   -0.8906998306
H        2.5234950913   -0.3817646288    3.4461074172
H        2.0418700635    0.6241907886    1.1714179208
H       -1.5987654595   -1.6715545390    1.1095122817
H       -1.3615126240    0.1367571489   -1.7571786585
15   
Generated by ForceBalance from scan.xyz: Frame 13 of 24
C        0.9405527544   -2.1297607963    4.7280861404
C        1.6073568809   -0.6109175847    2.9138797965
C        1.3516287460   -0.0695188662    1.6582196649
C       -0.6470655174   -1.4180526517    1.5804202158
C        0.6967276835   -1.5489148376    3.4253216569
C        0.2046025511   -0.4816601281    0.9709818395
C       -0.0794785489    0.1021645679   -0.3693231960
N        1.1739966215   -2.5724857635    5.7790293605
N       -0.4111784878   -1.9535883166    2.7800212040
O        0.7332164009    0.7157268788   -1.0346368690
O       -1.3455515556   -0.1428059966   -0.7913810284
H        2.4804568719   -0.3256724383    3.4915643936
H        2.0193942283    0.6553160589    1.2028297193
H       -1.5491685462   -1.7488402313    1.0730256863
H       -1.4226405369    0.2548105314   -1.6802147905
15   
Generated by ForceBalance from scan.xyz: Frame 14 of 24
C        0.9390319474   -2.1185513246    4.7274767349
C        1.5889704408   -0.5812528111    2.9235672017
C        1.3397933637   -0.0509104364    1.6614489728
C       -0.6125847675   -1.4629041437    1.5496903518
C        0.7018461798   -1.5499442932    3.4181520017
C        0.2227338537   -0.5045990144    0.9524654865
C       -0.0694492106    0.0733636388   -0.3892992732
N        1.1661280082   -2.5503328956    5.7843408582
N       -0.3789916090   -1.9924323267    2.7520503948
O        0.7771835747    0.4942487356   -1.1537804302
O       -1.3910862204    0.0361813026   -0.6939956432
H        2.4390071625   -0.2636148725    3.5184816484
H        1.9949945542    0.6935055459    1.2192663962
H       -1.4970418759   -1.8194633629    1.0281745965
H       -1.4767432812    0.3898641379   -1.6006987759
15   
Generated by ForceBalance from scan.xyz: Frame 15 of 24
C        0.9359803106   -2.1164822372    4.7297623297
C        1.5649200076   -0.5546556872    2.9386512227
C        1.3228885557   -0.0335364442    1.6706196102
C       -0.5787223026   -1.5085922117    1.5245490678
C        0.7042148977   -1.5543750288    3.4166587489
C        0.2384289578   -0.5276153405    0.9399253357
C       -0.0614633000    0.0339899224   -0.4091434212
N        1.1578640891   -2.5419738463    5.7902774886
N       -0.3483626008   -2.0319127516    2.7298434926
O        0.7736009723    0.2465401352   -1.2659272343
O       -1.3912492440    0.2207964309   -0.6018641018
H        2.3906261551   -0.2057876482    3.5500619422
H        1.9639340021    0.7326173514    1.2447271654
H       -1.4444723214   -1.8911898127    0.9893285437
H       -1.4983968706    0.5341849512   -1.5214396185
15   
Generated by ForceBalance from scan.xyz: Frame 16 of 24
C        0.9404339119   -2.1172249636    4.7329538809
C        1.5395969726   -0.5321382798    2.9529830187
C        1.2988259620   -0.0166228254    1.6817066357
C       -0.5451189598   -1.5593842447    1.5046406512
C        0.7084756669   -1.5623022219    3.4168887769
C        0.2447946449   -0.5482700978    0.9350583678
C       -0.0653699122   -0.0098482962   -0.4246909855
N        1.1608365451   -2.5349080634    5.7968725686
N       -0.3154026579   -2.0754684850    2.7127677287
O        0.7081612141   -0.0128329868   -1.3603945471
O       -1.3476443501    0.4209358449   -0.5161682789
H        2.3430796069   -0.1547685401    3.5769206013
H        1.9209884151    0.7736833175    1.2718611236
H       -1.3886921972   -1.9729710700    0.9561811557
H       -1.4830059798    0.7033970653   -1.4425495303
15   
Generated by ForceBalance from scan.xyz: Frame 17 of 24
C        0.9564706579   -2.1121451131    4.7349173181
C        1.5057231992   -0.5035575835    2.9590624528
C        1.2543430735    0.0023300722    1.6854341267
C       -0.5156585332   -1.6194456067    1.4894323053
C        0.7141876934   -1.5665101581    3.4168194070
C        0.2308736967   -0.5717726687    0.9288281818
C       -0.0844222051   -0.0704089631   -0.4475886806
N        1.1841880043   -2.5212546564    5.8006283389
N       -0.2796639960   -2.1216990916    2.7021067542
O        0.5872965787   -0.2928941989   -1.4329791209
O       -1.2462209051    0.6261863256   -0.4745052952
H        2.2889100329   -0.0940615134    3.5885351157
H        1.8471500940    0.8204627231    1.2865961736
H       -1.3315713607   -2.0744973975    0.9313610399
H       -1.3980866289    0.8853151636   -1.4055307681
15   
Generated by ForceBalance from scan.xyz: Frame 18 of 24
C        0.9896274282   -2.1162841821    4.7321423456
C        1.4618500443   -0.4765546072    2.9632008233
C        1.1816313544    0.0273235728    1.6946815583
C       -0.4991675046   -1.6844716861    1.4850641185
C        0.7205900048   -1.5767283066    3.4167515507
C        0.1815792134   -0.5863811448    0.9380522079
C       -0.1323963706   -0.1217517318   -0.4532564627
N        1.2373015844   -2.5183266725    5.7960957315
N       -0.2437155101   -2.1766268017    2.6979668755
O        0.3951066574   -0.5514916532   -1.4568839827
O       -1.0836066069    0.8424579757   -0.4608138828
H        2.2299297161   -0.0375392237    3.5914026306
H        1.7328305791    0.8778210701    1.3038294893
H       -1.2803795609   -2.1868355468    0.9178100287
H       -1.2321104798    1.0858779087   -1.3968030201
15   
Generated by ForceBalance from scan.xyz: Frame 19 of 24
C        1.0406256339   -2.1310087809    4.7230248376
C        1.4140145549   -0.4503211972    2.9692724361
C        1.0939932296    0.0553251749    1.7109019711
C       -0.4908871387   -1.7442910501    1.4910412733
C        0.7316362466   -1.5903538312    3.4169381861
C        0.1137760184   -0.5953693273    0.9583794681
C       -0.1955674623   -0.1687986099   -0.4439841386
N        1.3187053427   -2.5324885920    5.7796550859
N       -0.2061164947   -2.2322962697    2.6988224277
O        0.1491603487   -0.7762833546   -1.4354507691
O       -0.8606149487    1.0114009450   -0.4820736164
H        2.1691736188    0.0160773286    3.5934184404
H        1.5943844454    0.9394093088    1.3265229327
H       -1.2377211689   -2.2876714518    0.9156374555
H       -0.9901861121    1.2321193488   -1.4262519688
15   
Generated by ForceBalance from scan.xyz: Frame 20 of 24
C        0.8367908763   -2.1053123426    4.7409189526
C        1.7099050651   -0.7653135419    2.8749263525
C        1.5134613015   -0.1927834886    1.6198572799
C       -0.6841655824   -1.1807516294    1.6156788084
C        0.6612275164   -1.5091347504    3.4342317328
C        0.2866159424   -0.3892522135    0.9808176471
C        0.0558024449    0.0795836540   -0.4192585391
N        1.0192236839   -2.5660153258    5.7942316050
N       -0.5193894375   -1.7176595138    2.8245881205
O       -0.2382516518   -0.6487351079   -1.3444925454
O        0.2917234900    1.4083831697   -0.5590887881
H        2.6444173064   -0.6466886376    3.4134163280
H        2.2939071519    0.3988785411    1.1508065507
H       -1.6334958540   -1.3786846717    1.1224835266
H        0.1729946818    1.6161406211   -1.5071603328
15   
Generated by ForceBalance from scan.xyz: Frame 21 of 24
C        0.8634720547   -2.1151707091    4.7305707164
C        1.6963968062   -0.7215989972    2.8866138669
C        1.4852927442   -0.1413974491    1.6376452314
C       -0.6766170154   -1.2090193863    1.6099580134
C        0.6720068730   -1.5096889945    3.4304387508
C        0.2695144658   -0.3764092517    0.9892182209
C        0.0136421513    0.1023515368   -0.3996076940
N        1.0577889289   -2.5818457669    5.7791157275
N       -0.4983515984   -1.7539252413    2.8131608131
O       -0.4992812724   -0.5687900842   -1.2722095231
O        0.4876756905    1.3579614124   -0.6066082318
H        2.6231181227   -0.5764909855    3.4320616944
H        2.2442120287    0.4837405134    1.1776542558
H       -1.6145922916   -1.4323197240    1.1065460330
H        0.3285454196    1.5636915867   -1.5486870428
15   
Generated by ForceBalance from scan.xyz: Frame 22 of 24
C        0.8788705868   -2.1260369407    4.7223092739
C        1.6815547566   -0.6908765417    2.8967816484
C        1.4635990272   -0.1095450789    1.6497980616
C       -0.6646892230   -1.2436218205    1.5969995376
C        0.6789615765   -1.5171246140    3.4249869048
C        0.2623003016   -0.3811725803    0.9873463049
C       -0.0216674116    0.1220446842   -0.3855076141
N        1.0794907423   -2.5942524116    5.7689815487
N       -0.4780914537   -1.7944324494    2.7964428522
O       -0.7290075334   -0.4458443704   -1.1941700764
O        0.6441680405    1.2735322063   -0.6627941396
H        2.5968234234   -0.5180689768    3.4533969521
H        2.2051307144    0.5425843925    1.1999236697
H       -1.5922796756   -1.4864621936    1.0841020753
H        0.4321942391    1.4989217666   -1.5894674439
15   
Generated by ForceBalance from scan.xyz: Frame 23 of 24
C        0.8862788267   -2.1439479523    4.7153677099
C        1.6640480151   -0.6657750783    2.9126433056
C        1.4452597315   -0.0825557343    1.6669682572
C       -0.6497744168   -1.2760249369    1.5829452103
C        0.6823967184   -1.5287413774    3.4216094696
C        0.2618842256   -0.3881877686    0.9861794908
C       -0.0459191384    0.1449849093   -0.3692607901
N        1.0901512617   -2.6172529153    5.7591168375
N       -0.4589347065   -1.8349698365    2.7781410381
O       -0.9168163137   -0.2862755599   -1.0996545556
O        0.7780013965    1.1648764993   -0.7266824355
H        2.5650037617   -0.4669780540    3.4837085811
H        2.1722029137    0.5942560394    1.2304870653
H       -1.5677451884   -1.5330381729    1.0602405636
H        0.5151246413    1.4272539972   -1.6301036759
15   
Generated by ForceBalance from scan.xyz: Frame 24 of 24
C        0.8970962100   -2.1535890757    4.7058600185
C        1.6499752460   -0.6376212320    2.9254966287
C        1.4301097909   -0.0554241257    1.6796418823
C       -0.6292145727   -1.3072278428    1.5621880414
C        0.6900005473   -1.5363690934    3.4135622962
C        0.2669502222   -0.3945083963    0.9795982434
C       -0.0617923264    0.1704040747   -0.3579968661
N        1.1030924334   -2.6272859684    5.7490171822
N       -0.4331645274   -1.8730869797    2.7533885035
O       -1.0609808029   -0.0997105625   -0.9958697165
O        0.8848877632    1.0365113885   -0.8061418176
H        2.5343392245   -0.4112525514    3.5120618847
H        2.1415253535    0.6458784411    1.2569114976
H       -1.5369582844   -1.5803745478    1.0300214242
H        0.5799290590    1.3479334448   -1.6802096680
