28   
Generated by ForceBalance from scan.xyz: Frame 1 of 24
C       -0.1939488422    1.6654779783   -4.7234525449
C        0.8775541162   -0.2828476624   -5.6356054651
C        0.7482558917    1.7077632741   -3.7033795319
C        1.8261132763   -0.2409633981   -4.6049486264
C       -0.1517441983    0.6659567977   -5.7163655854
C        1.7855962942    0.7556264330   -3.6182617501
C        5.3606783812    2.0096061207   -3.4044784067
C       -0.9433290022   -0.1783606001   -7.9002003917
C        4.9697688383    0.5378291392   -3.5727320542
C        3.9307962581    0.0675153968   -2.5370337568
N       -1.1537170401    0.6283479872   -6.7072525501
N        2.6685525720    0.7970228173   -2.5248582248
H       -0.9865506185    2.4114362999   -4.7487673248
H        0.9576909665   -1.0701978174   -6.3781242844
H        0.6778441928    2.4876690570   -2.9468380619
H        2.5994941744   -1.0017405172   -4.5872430625
H        4.5031279018    2.6692405497   -3.5758169392
H        5.7446418198    2.2077813832   -2.3959442252
H        6.1393534095    2.2962506016   -4.1187226321
H        0.0095766114    0.0320955693   -8.4135235822
H       -1.7640869796    0.0061112270   -8.5982766352
H       -0.9637711309   -1.2434110387   -7.6457955644
H        5.8592554089   -0.0981349433   -3.4747182396
H        4.5801424702    0.3790260267   -4.5838249389
H        3.7150716236   -0.9969723679   -2.6798386103
H        4.3580543447    0.1576588996   -1.5313478652
H       -1.5053316982    1.5539127609   -6.9223000127
H        2.7446678253    1.7222194267   -2.1201953876
28   
Generated by ForceBalance from scan.xyz: Frame 2 of 24
C       -0.0381758554    1.7270686089   -4.7458485644
C        0.8433263339   -0.3571004032   -5.5573478176
C        0.8826900647    1.7125220094   -3.7039158581
C        1.7595103658   -0.3778319123   -4.4990648966
C       -0.0787734946    0.6915353088   -5.7000179056
C        1.7993845248    0.6538476245   -3.5492653827
C        5.1712537642    2.0847232192   -3.4714605519
C       -0.8941885094   -0.1405654558   -7.8806201865
C        4.9121805162    0.5837977556   -3.6383364130
C        3.9873122823    0.0067153884   -2.5516386028
N       -1.0525788744    0.7201235988   -6.7177401980
N        2.6697283027    0.6340902297   -2.4412475233
H       -0.7417961222    2.5541296664   -4.8241690200
H        0.8581520267   -1.1754294476   -6.2699072281
H        0.8870081966    2.5323482172   -2.9871169090
H        2.4458498762   -1.2157000766   -4.4245897957
H        4.2479882698    2.6611922861   -3.5937046088
H        5.5842660355    2.3112045245   -2.4804314502
H        5.8834328446    2.4486092379   -4.2191355977
H        0.0885327197   -0.0434371342   -8.3710250333
H       -1.6728006926    0.1045257769   -8.6076640711
H       -1.0302294596   -1.1897546023   -7.5975552916
H        5.8613253853    0.0333091680   -3.6039604506
H        4.4770033223    0.3973656716   -4.6261380800
H        3.8537407525   -1.0689775458   -2.7093201035
H        4.4663695158    0.1105120599   -1.5711873366
H       -1.3111866319    1.6674574654   -6.9668186947
H        2.7202749246    1.5420915553   -1.9937006741
28   
Generated by ForceBalance from scan.xyz: Frame 3 of 24
C        0.1254080750    1.7787280054   -4.8085008881
C        0.7716774139   -0.4342645277   -5.4931544828
C        1.0298415305    1.7154129510   -3.7521290317
C        1.6588503645   -0.5041483937   -4.4143758329
C       -0.0217954618    0.7055053964   -5.7078884662
C        1.8074893998    0.5658682387   -3.5199862733
C        5.0392027292    2.1857363879   -3.4259170921
C       -0.8931481792   -0.1389286214   -7.8632049027
C        4.8664495320    0.6860053880   -3.6886009359
C        4.0356748055   -0.0282101719   -2.6091897766
N       -0.9706055524    0.7888795717   -6.7443696388
N        2.6771530529    0.4932684246   -2.4065893244
H       -0.4739825689    2.6771323145   -4.9457080544
H        0.6996363155   -1.2862132346   -6.1613853816
H        1.1285864349    2.5713790269   -3.0861259522
H        2.2399600438   -1.4110549897   -4.2738133193
H        4.0781428632    2.7093082499   -3.4687053495
H        5.4830401165    2.3701966473   -2.4395739428
H        5.6920458065    2.6453563733   -4.1751098652
H        0.1013263357   -0.1751207722   -8.3375886565
H       -1.6283531637    0.1569411450   -8.6160004186
H       -1.1506615880   -1.1516910542   -7.5356291840
H        5.8493597832    0.1996953075   -3.7391377575
H        4.3925665966    0.5378983820   -4.6654590797
H        3.9713828164   -1.0964827692   -2.8405342873
H        4.5456514965    0.0417394286   -1.6412751633
H       -1.1276057271    1.7452227826   -7.0392167971
H        2.7054165288    1.3843744304   -1.9220831289
28   
Generated by ForceBalance from scan.xyz: Frame 4 of 24
C        0.2952948792    1.8063230354   -4.9184932962
C        0.6577983647   -0.5172047249   -5.4375612004
C        1.1910026451    1.7072280857   -3.8557427984
C        1.5263472907   -0.6190242324   -4.3479781849
C        0.0144297889    0.6973353057   -5.7384792626
C        1.8131843021    0.4879045596   -3.5365619543
C        4.9984635034    2.2872151266   -3.2514082020
C       -0.9597130894   -0.1837649261   -7.8355151552
C        4.8458919740    0.8344486966   -3.7148376374
C        4.0772128770   -0.0506859013   -2.7199695683
N       -0.9170838444    0.8216437932   -6.7839379017
N        2.6952814028    0.3680779896   -2.4292615637
H       -0.1882844099    2.7597159417   -5.1245130415
H        0.4721058638   -1.3999416165   -6.0406858707
H        1.4029520727    2.5912627415   -3.2565427853
H        1.9840004998   -1.5789056054   -4.1236857250
H        4.0279464983    2.7903290216   -3.1847936338
H        5.4764432372    2.3434444110   -2.2654967447
H        5.6123603123    2.8629559084   -3.9517214354
H        0.0203382248   -0.3731687358   -8.3030088075
H       -1.6573901799    0.1471790782   -8.6090466889
H       -1.3371920142   -1.1325117059   -7.4398803422
H        5.8375713495    0.3899398631   -3.8702195624
H        4.3352083872    0.8087292497   -4.6844301069
H        4.0529907629   -1.0796918930   -3.0925423027
H        4.6081807231   -0.0834219388   -1.7609529552
H       -0.9674344962    1.7682296100   -7.1407182163
H        2.7019637335    1.2347066063   -1.8994385232
28   
Generated by ForceBalance from scan.xyz: Frame 5 of 24
C        0.4456024889    1.7977794304   -5.0674992310
C        0.5199176461   -0.5918227407   -5.3843283914
C        1.3337544169    1.6820185697   -3.9997765756
C        1.3785386400   -0.7010979605   -4.2879956756
C        0.0261028726    0.6630745346   -5.7881155360
C        1.8043819983    0.4277042675   -3.5759033009
C        4.9992997460    2.3723248173   -2.9858785025
C       -1.0650653296   -0.2664977706   -7.8061376877
C        4.8249775389    1.0238368056   -3.6935185619
C        4.1017661182   -0.0328345227   -2.8422646591
N       -0.8922340682    0.8077624433   -6.8395168223
N        2.7047177929    0.2744172960   -2.4785970529
H        0.0780266565    2.7808624208   -5.3569941556
H        0.2209401289   -1.4936227363   -5.9085549988
H        1.6593643435    2.5816818226   -3.4810427937
H        1.7223891496   -1.6827630952   -3.9718917153
H        4.0347665791    2.8417941572   -2.7632343972
H        5.5402642959    2.2568942529   -2.0387178408
H        5.5625755836    3.0759100314   -3.6076468775
H       -0.1188138840   -0.6081571647   -8.2558555014
H       -1.7248501825    0.0829234753   -8.6042924728
H       -1.5497084232   -1.1284047526   -7.3357023827
H        5.8110651011    0.6245571484   -3.9643753169
H        4.2761153450    1.1646156785   -4.6319055272
H        4.1018734724   -0.9885994860   -3.3761497468
H        4.6508467723   -0.1966938526   -1.9065810845
H       -0.8491590816    1.7250726168   -7.2663026290
H        2.6830251396    1.1118797350   -1.9021785329
28   
Generated by ForceBalance from scan.xyz: Frame 6 of 24
C        0.6199402061    1.7709777267   -5.2239453680
C        0.4036019220   -0.6308888306   -5.3485689487
C        1.5096255091    1.6343484428   -4.1606570201
C        1.2688833070   -0.7533778753   -4.2582946746
C        0.0536133402    0.6393644945   -5.8442097320
C        1.8360023032    0.3686428490   -3.6430217779
C        4.9760056866    2.4275691445   -2.7672828817
C       -1.1904042729   -0.3070858635   -7.7643657518
C        4.8459132681    1.1839516368   -3.6543053185
C        4.1650911000   -0.0056512135   -2.9564573197
N       -0.8628299831    0.8098200846   -6.8906218264
N        2.7545569739    0.1753723059   -2.5589400970
H        0.3629472852    2.7644070534   -5.5879815778
H       -0.0107012025   -1.5283581315   -5.7961290326
H        1.9460206410    2.5264378393   -3.7167165544
H        1.5115117023   -1.7379480488   -3.8665763587
H        3.9975448510    2.8196725001   -2.4671872453
H        5.5365871720    2.2038742789   -1.8515912596
H        5.4994127258    3.2351545781   -3.2896826061
H       -0.3045472956   -0.7949316950   -8.2015539718
H       -1.8248128344    0.0573493510   -8.5761738961
H       -1.7619682448   -1.0642476983   -7.2175558174
H        5.8456250583    0.8602460436   -3.9721586639
H        4.2953738847    1.4319892583   -4.5688269726
H        4.2059625354   -0.8811487996   -3.6133389805
H        4.7245547783   -0.2659388327   -2.0486862390
H       -0.7303737732    1.6827770761   -7.3861604575
H        2.6876452040    0.9587382925   -1.9128830057
28   
Generated by ForceBalance from scan.xyz: Frame 7 of 24
C        0.4833789109    1.6534284170   -5.2586963264
C        0.2731272260   -0.7148186470   -4.8244046466
C        1.2015804436    1.8038307599   -4.0756737022
C        0.9871335969   -0.5470465506   -3.6338378581
C        0.0097845621    0.3864952965   -5.6599762938
C        1.4595358845    0.7064360282   -3.2358492605
C        4.2168738635   -1.4538514387   -1.6484710657
C       -1.4503631939   -0.9347421264   -7.1624395034
C        4.3307335130   -0.3225114894   -2.6753634821
C        3.6687943806    0.9813502638   -2.2198515189
N       -0.6655858816    0.2575620084   -6.8792358636
N        2.2122616232    0.8297067467   -2.0142544379
H        0.2929021683    2.5190992074   -5.8910142947
H       -0.0820223768   -1.7045402528   -5.0919412658
H        1.5661564032    2.7904890395   -3.7948100672
H        1.1743110743   -1.4006432682   -2.9883357518
H        4.7199697559   -1.1861068900   -0.7114715443
H        3.1696796137   -1.6599332353   -1.4113587373
H        4.6751107072   -2.3758010974   -2.0228384191
H       -2.1890004787   -1.1675203893   -6.3791040344
H       -0.7946100930   -1.8033784353   -7.2826928282
H       -1.9780478883   -0.7903617330   -8.1084340654
H        3.8868093937   -0.6346658155   -3.6277636576
H        5.3871773534   -0.1105346293   -2.8836063159
H        4.0984509037    1.2884884946   -1.2581519149
H        3.8985654788    1.7751481283   -2.9512406452
H       -1.1134826438    1.1165155583   -7.1730339974
H        1.8769627938    1.6418036948   -1.5008508866
28   
Generated by ForceBalance from scan.xyz: Frame 8 of 24
C        0.6791559908    1.5367350828   -5.3336298216
C        0.1225764118   -0.7366778958   -4.7274184513
C        1.3622571760    1.6881429573   -4.1308490988
C        0.8168450786   -0.5695029492   -3.5245452443
C        0.0477085134    0.3164730560   -5.6572331831
C        1.4401208884    0.6373488540   -3.1999774577
C        4.2904820349   -1.4132909689   -1.8252263280
C       -1.5237074436   -0.9141197971   -7.1237342011
C        4.3590112237   -0.1494080988   -2.6882010198
C        3.5942978480    1.0374230705   -2.0939007359
N       -0.5916001953    0.1794174301   -6.8938898807
N        2.1548076856    0.7474460974   -1.9501526826
H        0.6336017729    2.3644136476   -6.0396979395
H       -0.3545264492   -1.6887777581   -4.9352377477
H        1.8406605901    2.6398458733   -3.9088552462
H        0.8746251691   -1.3872001932   -2.8114260545
H        4.7186727166   -1.2347869089   -0.8314378223
H        3.2544166579   -1.7320742370   -1.6847996964
H        4.8460236755   -2.2368263423   -2.2870491714
H       -2.3163392454   -0.9788606183   -6.3616297103
H       -0.9916156943   -1.8708926256   -7.1454913241
H       -1.9901911881   -0.7772401384   -8.1023949387
H        3.9651001571   -0.3604689535   -3.6894476985
H        5.4043499090    0.1552267438   -2.8252493272
H        3.9800779141    1.2540175397   -1.0898445136
H        3.7854158313    1.9301541841   -2.7137454202
H       -0.8985742331    1.0635929317   -7.2794323994
H        1.7290047141    1.4758836014   -1.3809257468
28   
Generated by ForceBalance from scan.xyz: Frame 9 of 24
C        0.8778341460    1.3708725692   -5.4291558747
C       -0.0329444274   -0.7304018778   -4.6613939049
C        1.5392741693    1.5285598908   -4.2148982711
C        0.6559922942   -0.5699756365   -3.4548393140
C        0.0756136570    0.2368821152   -5.6770091203
C        1.4442230896    0.5565340803   -3.2033366732
C        4.3895271203   -1.3053040410   -1.9752423982
C       -1.6269872203   -0.8668858179   -7.0965000380
C        4.4111718249    0.0718408843   -2.6457455936
C        3.5100775610    1.1000311550   -1.9532282487
N       -0.5436863930    0.0892786794   -6.9236550974
N        2.1058228979    0.6666059761   -1.9279985922
H        0.9777472722    2.1316432959   -6.2018181187
H       -0.6411206054   -1.6168099718   -4.8089513870
H        2.1411830289    2.4196017762   -4.0552014051
H        0.5830367991   -1.3301326872   -2.6815416977
H        4.7197094696   -1.2406151003   -0.9314285205
H        3.3786230884   -1.7210957140   -1.9773574816
H        5.0520659479   -2.0060990054   -2.4948442738
H       -2.4391023244   -0.7439569953   -6.3624148820
H       -1.2478444254   -1.8911207180   -7.0180059277
H       -2.0423662464   -0.7483740410   -8.1003068645
H        4.1053835934   -0.0231979714   -3.6942998970
H        5.4335063764    0.4705904808   -2.6565894199
H        3.8248744753    1.2124146230   -0.9083101586
H        3.6540131652    2.0832252196   -2.4334769083
H       -0.7062311256    0.9739419816   -7.3882723341
H        1.5678511561    1.2581186985   -1.2997873232
28   
Generated by ForceBalance from scan.xyz: Frame 10 of 24
C        1.0341618903    1.1736280973   -5.5069436501
C       -0.1867161832   -0.7149156822   -4.6374752051
C        1.6927175337    1.3139473112   -4.2877964352
C        0.5064485198   -0.5895043898   -3.4304375337
C        0.0764577684    0.1597580918   -5.7076305030
C        1.4506919821    0.4243935933   -3.2256997726
C        4.5472328203   -1.2068543062   -2.0398803527
C       -1.7555351882   -0.7643500217   -7.0921831285
C        4.4692121858    0.2216475169   -2.5873092548
C        3.4301890005    1.0902534934   -1.8670857104
N       -0.5398736675    0.0249024081   -6.9601788728
N        2.0841116811    0.5230718638   -1.9478687070
H        1.2580242140    1.8625354602   -6.3199970379
H       -0.9160978078   -1.5110804125   -4.7450102687
H        2.4093300643    2.1215786668   -4.1694609061
H        0.3151598980   -1.2913482783   -2.6223641142
H        4.8052570860   -1.2069562257   -0.9739358749
H        3.5860119310   -1.7159344867   -2.1489027530
H        5.3081020268   -1.7897010673   -2.5701831662
H       -2.5452658247   -0.4744982201   -6.3805296637
H       -1.5377596965   -1.8274402035   -6.9454362926
H       -2.1409448728   -0.6475493757   -8.1081707945
H        4.2395420387    0.1923871562   -3.6584571090
H        5.4439049320    0.7171201595   -2.4933445279
H        3.6853046924    1.1411032332   -0.8017450023
H        3.4920371920    2.1237187962   -2.2507658223
H       -0.5714055574    0.8976308217   -7.4727531719
H        1.4622539334    0.9131037296   -1.2476765811
28   
Generated by ForceBalance from scan.xyz: Frame 11 of 24
C       -0.3901471523    1.4674875680   -4.5923322900
C        0.8768011978   -0.3237182882   -5.5843747867
C        0.5683020349    1.5957501613   -3.5869757475
C        1.8531796691   -0.1650562648   -4.5996691756
C       -0.2615734823    0.5039660287   -5.6085744108
C        1.7232317899    0.7926740142   -3.5816401458
C        4.1352173015    3.2298010002    0.0855174004
C       -1.3087861262   -0.7648338006   -7.4564569546
C        4.0482831302    2.0263876040   -0.8587975856
C        2.7728954864    2.0378498847   -1.7038204345
N       -1.2296419379    0.4279724279   -6.6259060964
N        2.7286034668    0.8844263844   -2.5889832851
H       -1.2611395372    2.1209881900   -4.5848493832
H        1.0202467471   -1.0832788611   -6.3459761678
H        0.4135418241    2.3357744772   -2.8080632563
H        2.7405883627   -0.7938617097   -4.6191038095
H        4.1292553500    4.1721853950   -0.4741158474
H        3.2892714779    3.2519684417    0.7821022696
H        5.0546848237    3.2017014899    0.6791653308
H       -1.3760878519   -1.7005113902   -6.8776888676
H       -0.4334385459   -0.8317581120   -8.1110032144
H       -2.1900411158   -0.6873060416   -8.0984415102
H        4.0840407790    1.0981226676   -0.2716207596
H        4.9142570332    2.0049140564   -1.5299275435
H        1.8973775058    2.1001193382   -1.0311049829
H        2.7542615609    2.9402743515   -2.3265083498
H       -2.1374548076    0.7497122662   -6.3121668111
H        2.8983914260    0.0064550810   -2.1106360749
28   
Generated by ForceBalance from scan.xyz: Frame 12 of 24
C       -0.3114000954    1.5550063052   -4.6805040580
C        0.8588303681   -0.3428947789   -5.5819674335
C        0.6777592387    1.7126688296   -3.7083682687
C        1.8633802701   -0.1639034316   -4.6308150627
C       -0.2477825476    0.5255287744   -5.6345151118
C        1.7981761862    0.8625468205   -3.6732766368
C        4.0473854079    3.1367775998    0.1980596320
C       -1.3919010207   -0.8214332019   -7.3651437113
C        4.0471250158    2.0266201349   -0.8577857780
C        2.7930570931    2.0534698615   -1.7327006609
N       -1.2458527672    0.4225471730   -6.6230663315
N        2.8393341245    0.9980203553   -2.7325120157
H       -1.1552517910    2.2430334351   -4.6945391180
H        0.9535091082   -1.1564531551   -6.2938020991
H        0.5700859276    2.5101555658   -2.9807129465
H        2.7211549883   -0.8336914443   -4.6304883118
H        4.0048973209    4.1268780117   -0.2699054059
H        3.1851623538    3.0488064057    0.8688504986
H        4.9527341279    3.0979879573    0.8123098835
H       -1.4792197978   -1.7118113829   -6.7209241290
H       -0.5372422025   -0.9681389208   -8.0338916901
H       -2.2860172974   -0.7538900657   -7.9903808310
H        4.1194481867    1.0496609766   -0.3596491419
H        4.9288896610    2.1157071146   -1.5025797396
H        1.8973205293    1.9868054766   -1.0883444185
H        2.7352061881    3.0174779261   -2.2529312411
H       -2.1334910814    0.7903596322   -6.3017786115
H        3.1515722775    0.1107579950   -2.3541076980
28   
Generated by ForceBalance from scan.xyz: Frame 13 of 24
C       -0.2459014927    1.6263633259   -4.7730379750
C        0.8497077006   -0.3648699969   -5.5565669746
C        0.7684256001    1.8264028948   -3.8356863181
C        1.8750426962   -0.1519279391   -4.6345643823
C       -0.2320223865    0.5299794123   -5.6516543664
C        1.8604271132    0.9426702985   -3.7535645566
C        3.9508530189    3.0364738511    0.2978895451
C       -1.4459599756   -0.9007765567   -7.2627456652
C        4.0374217247    2.0373333603   -0.8602547750
C        2.8031353326    2.0813279825   -1.7614856407
N       -1.2540878726    0.3866826675   -6.6110721697
N        2.9338643299    1.1357620539   -2.8622434510
H       -1.0687699973    2.3377504823   -4.8218544421
H        0.9059510769   -1.2313602020   -6.2073788747
H        0.7023548882    2.6822404759   -3.1722842070
H        2.7077621429   -0.8523042133   -4.5980998853
H        3.8615792821    4.0639334659   -0.0727231017
H        3.0807698501    2.8351257809    0.9330392771
H        4.8434458268    2.9873115244    0.9297564482
H       -1.5409907719   -1.7429106231   -6.5574880295
H       -0.6093699325   -1.1144662886   -7.9363998239
H       -2.3513328155   -0.8533837556   -7.8734944901
H        4.1557258366    1.0215308163   -0.4578157247
H        4.9264986435    2.2395525141   -1.4687308323
H        1.8967356564    1.8936232543   -1.1584795431
H        2.7017154913    3.0911624895   -2.1777427725
H       -2.1255767737    0.7966699356   -6.2967824557
H        3.3448617493    0.2569808662   -2.5659963866
28   
Generated by ForceBalance from scan.xyz: Frame 14 of 24
C       -0.1925421363    1.6951457471   -4.8880568344
C        0.8466770404   -0.3787197232   -5.5188675743
C        0.8375869596    1.9453721134   -3.9824206389
C        1.8833526166   -0.1218070255   -4.6191244527
C       -0.2138115644    0.5309708571   -5.6764622212
C        1.9046254897    1.0399485043   -3.8311164990
C        3.8665191917    2.9452883300    0.3680025501
C       -1.4749670615   -0.9907580678   -7.1625858050
C        4.0251598945    2.0721662300   -0.8809219415
C        2.7915627290    2.1137790053   -1.7826939224
N       -1.2497515317    0.3377664876   -6.6118755451
N        2.9979907767    1.2974658713   -2.9778259685
H       -0.9967875317    2.4220301007   -4.9895583118
H        0.8748085713   -1.2964865975   -6.0970802424
H        0.8071610654    2.8587114485   -3.3970097031
H        2.6935495864   -0.8436917783   -4.5274053889
H        3.7057693058    3.9951999460    0.0981871413
H        3.0116649855    2.6226295547    0.9730404862
H        4.7592861465    2.8972412915    0.9997378628
H       -1.5824299771   -1.7746603170   -6.3947734099
H       -0.6485274271   -1.2732198173   -7.8233172391
H       -2.3840097281   -0.9696311258   -7.7693206001
H        4.2170473806    1.0332992577   -0.5780129250
H        4.8972952064    2.3965271560   -1.4605482424
H        1.9010859200    1.7910967081   -1.2158886594
H        2.6138253036    3.1514432694   -2.0891774819
H       -2.1091666086    0.7881002104   -6.3203938466
H        3.4913340746    0.4391813017   -2.7529957219
28   
Generated by ForceBalance from scan.xyz: Frame 15 of 24
C       -0.1359790894    1.7686306944   -5.0170177032
C        0.8091663975   -0.3975906459   -5.4641952292
C        0.9023727503    2.0491435273   -4.1329437983
C        1.8488864296   -0.1135237809   -4.5732680641
C       -0.2070295949    0.5419577305   -5.7047605327
C        1.9215692927    1.1086101514   -3.8896735801
C        3.8143432285    2.8378088564    0.4145259927
C       -1.5262089003   -1.0360862530   -7.0773773963
C        4.0335101224    2.1264974252   -0.9247002520
C        2.7615245258    2.0694016876   -1.7705877179
N       -1.2467927391    0.3196372910   -6.6276437232
N        3.0220167407    1.4045392491   -3.0519998778
H       -0.9031000935    2.5213956980   -5.1909730900
H        0.7981371370   -1.3611725114   -5.9629626813
H        0.9231206745    3.0148399629   -3.6369370150
H        2.6191891740   -0.8652004368   -4.4067172605
H        3.4856568732    3.8723113250    0.2633371128
H        3.0501605644    2.3306347556    1.0143775921
H        4.7368468191    2.8648041967    1.0034002756
H       -1.6722929790   -1.7530273178   -6.2527242317
H       -0.7085179005   -1.4035206998   -7.7064638394
H       -2.4296999762   -1.0227170247   -7.6924759662
H        4.3918655270    1.1039511183   -0.7402632605
H        4.8167944093    2.6337540512   -1.4998058097
H        1.9565822889    1.5674614913   -1.2068528616
H        2.4220812668    3.0926755336   -1.9646255941
H       -2.0863666736    0.8308259402   -6.3828809771
H        3.5811844821    0.5693984261   -2.9027546597
28   
Generated by ForceBalance from scan.xyz: Frame 16 of 24
C       -0.0320399105    1.8407666478   -5.1367352627
C        0.7796009822   -0.4119029841   -5.3956084977
C        1.0173564511    2.1277919509   -4.2707422829
C        1.8257677713   -0.1205865211   -4.5118426056
C       -0.1735904558    0.5658062562   -5.7223765758
C        1.9692277671    1.1467483135   -3.9338564411
C        3.7537535045    2.7452625303    0.4600146774
C       -1.5754685161   -1.0307497781   -6.9887877531
C        4.0363721391    2.2173928038   -0.9504925982
C        2.7560212914    1.9424008534   -1.7386709099
N       -1.2167592137    0.3346977161   -6.6361447347
N        3.0697008220    1.4610676667   -3.0928180780
H       -0.7459407688    2.6235042261   -5.3877543786
H        0.7125269137   -1.4095340344   -5.8169681446
H        1.1111406440    3.1307448550   -3.8634752545
H        2.5420515877   -0.9037413714   -4.2675313321
H        3.1944043613    3.6871881180    0.4248002023
H        3.1620414835    2.0297932284    1.0424717525
H        4.6838637340    2.9313259208    1.0067893527
H       -1.7732546112   -1.6733355001   -6.1152936733
H       -0.7763532642   -1.4934788795   -7.5776151985
H       -2.4708343967   -1.0079651945   -7.6152568073
H        4.6258253522    1.2922796509   -0.8826578061
H        4.6463850217    2.9347100659   -1.5112255922
H        2.1214404775    1.2264317544   -1.1879884741
H        2.1809526384    2.8698603718   -1.8240664408
H       -2.0229183989    0.9196038065   -6.4526157422
H        3.6874484466    0.6557676533   -3.0269432198
28   
Generated by ForceBalance from scan.xyz: Frame 17 of 24
C        0.0568528136    1.9026002076   -5.2753360220
C        0.7573434854   -0.4054507765   -5.3170361644
C        1.1195405404    2.2148086897   -4.4355029441
C        1.8137226762   -0.0847089026   -4.4548727168
C       -0.1448738827    0.5848447694   -5.7387812586
C        2.0160447019    1.2225706250   -3.9994882641
C        3.6770079114    2.5998878715    0.5003319110
C       -1.6227926988   -1.0507156211   -6.8628873688
C        4.0043974127    2.2755031907   -0.9611796558
C        2.7674242037    1.8669883841   -1.7603628435
N       -1.1940209914    0.3205901377   -6.6330684066
N        3.1158940158    1.5800629367   -3.1632656339
H       -0.6156408440    2.6920503486   -5.6067893962
H        0.6417567185   -1.4324088480   -5.6476204130
H        1.2750833088    3.2434403257   -4.1201980411
H        2.4895038459   -0.8749269376   -4.1310845138
H        2.9633504163    3.4288495370    0.5709153914
H        3.2339583259    1.7370929570    1.0109362800
H        4.5769054522    2.8880780256    1.0534888842
H       -1.8580824199   -1.5981468780   -5.9357915008
H       -0.8469541280   -1.6070501805   -7.3994745508
H       -2.5130455601   -1.0386041565   -7.4967602814
H        4.7441680517    1.4636378953   -0.9985609414
H        4.4675098234    3.1400855223   -1.4500205359
H        2.2746032776    1.0051435857   -1.2768847596
H        2.0401498202    2.6859075932   -1.7532205892
H       -1.9660029889    0.9668158883   -6.5247581463
H        3.8041072467    0.8301353695   -3.1796881870
28   
Generated by ForceBalance from scan.xyz: Frame 18 of 24
C        0.1226928625    1.9508855080   -5.4353471186
C        0.7333903361   -0.3755513817   -5.2194784580
C        1.1821457621    2.3094834610   -4.6088147406
C        1.7865885963   -0.0044616924   -4.3748506238
C       -0.1214176518    0.5996988260   -5.7619744515
C        2.0292735501    1.3356834364   -4.0550317033
C        3.6415433156    2.4256080198    0.5313414186
C       -1.6455042507   -1.0883602039   -6.7396770559
C        3.9713277767    2.3003555599   -0.9600603512
C        2.7723965466    1.8393362030   -1.7880531466
N       -1.1626057849    0.2811203811   -6.6452799596
N        3.1197066091    1.7481093426   -3.2189561473
H       -0.5135018512    2.7244567247   -5.8620921522
H        0.5834441701   -1.4259945560   -5.4460790292
H        1.3760757073    3.3565059081   -4.3902781707
H        2.4279390815   -0.7791750318   -3.9572057835
H        2.8389324791    3.1530875811    0.6988023113
H        3.3120578342    1.4672103904    0.9490097384
H        4.5143639117    2.7558339892    1.1041581165
H       -1.9227742817   -1.5230671553   -5.7659105441
H       -0.8841267379   -1.7300365563   -7.1954417593
H       -2.5215758986   -1.1071162688   -7.3927524630
H        4.7981552449    1.5886806794   -1.0932993251
H        4.3216733572    3.2603815199   -1.3556471626
H        2.3910818982    0.8800653150   -1.3951324136
H        1.9549685796    2.5627316714   -1.6898536702
H       -1.9060942469    0.9682928478   -6.6328126659
H        3.8798854143    1.0769910371   -3.3179409806
28   
Generated by ForceBalance from scan.xyz: Frame 19 of 24
C       -0.4072363097    0.9870774248   -4.4252537382
C        1.3013955715    0.4356284338   -6.0338005741
C        0.5746911010    1.4137015944   -3.5339952660
C        2.2779121897    0.8858176225   -5.1412656952
C       -0.0625755665    0.4748436669   -5.6912296462
C        1.9395375401    1.3692756982   -3.8696441989
C        5.8243748816    1.1754424389   -3.7139220554
C       -0.7886909148   -0.2021985264   -7.9591531067
C        4.8296630573    0.1709413269   -3.1241830602
C        3.7413573851    0.8219800058   -2.2643780063
N       -1.0677957189   -0.0034355388   -6.5447747108
N        2.9427354002    1.8461921196   -2.9729737594
H       -1.4552599597    1.0330721137   -4.1339840809
H        1.6114291466    0.0734481748   -7.0085693842
H        0.2769440686    1.7879802419   -2.5556874947
H        3.3171095113    0.8926005709   -5.4535763878
H        5.3105096816    1.9181602816   -4.3306786956
H        6.3509087377    1.7184749702   -2.9200319818
H        6.5764982687    0.6716549015   -4.3308012000
H       -0.3593133791    0.6857265699   -8.4503650966
H       -1.7201601661   -0.4653628206   -8.4666398558
H       -0.0939647004   -1.0374977374   -8.0967729675
H        5.3589374576   -0.5521611098   -2.4901933424
H        4.3639424760   -0.4160658766   -3.9227912283
H        3.0973782713    0.0332554936   -1.8410239125
H        4.2231804944    1.3358151645   -1.4236223455
H       -1.9645416296    0.4335886734   -6.3715967221
H        2.5066623096    2.4483706214   -2.2808070630
28   
Generated by ForceBalance from scan.xyz: Frame 20 of 24
C       -0.4435615484    1.2984339212   -4.5561075260
C        1.0675572241    0.1402013344   -6.0308902223
C        0.6241098033    1.6348433820   -3.7273274529
C        2.1379658074    0.4983519741   -5.2059840000
C       -0.2459194000    0.5366845346   -5.7238264890
C        1.9414122766    1.2541138341   -4.0411929522
C        6.0826162422    1.6150931629   -3.1148620625
C       -1.1448937862   -0.3137143663   -7.8661032950
C        5.2170290776    0.3611821200   -3.2659036460
C        3.8324867869    0.5089869871   -2.6204816941
N       -1.3530037859    0.1647869825   -6.5071795531
N        3.0306765424    1.6045813634   -3.2042220075
H       -1.4513797588    1.6069680840   -4.2834395304
H        1.2702690046   -0.4401661424   -6.9250521988
H        0.4325498725    2.2042603399   -2.8191306864
H        3.1439359147    0.2001104469   -5.4859883679
H        5.5832646422    2.4791278703   -3.5634333930
H        6.2660486281    1.8422038184   -2.0572336118
H        7.0555477232    1.4896140300   -3.6019180285
H       -0.5340413961    0.3652441621   -8.4829763912
H       -2.1186637588   -0.4404397957   -8.3461044162
H       -0.6569382193   -1.2940098004   -7.8534327709
H        5.7183330073   -0.5025402407   -2.8088932281
H        5.0962380349    0.1231785623   -4.3291583489
H        3.2828386805   -0.4381092208   -2.6971422272
H        3.9660822461    0.7156430889   -1.5508671409
H       -2.1111083337    0.8328109784   -6.4376532625
H        2.7199598632    2.2442682273   -2.4821961021
28   
Generated by ForceBalance from scan.xyz: Frame 21 of 24
C       -0.4125007265    1.4099717696   -4.6194778371
C        1.0327825692    0.0186014606   -5.9472144690
C        0.6460155774    1.6917356405   -3.7608745759
C        2.0975281119    0.3124074844   -5.0883652570
C       -0.2440667090    0.5627256947   -5.7318552154
C        1.9301903904    1.1583925094   -3.9818640982
C        6.0494286103    1.6935013560   -3.0783882996
C       -1.1304592029   -0.3295202854   -7.8610854059
C        5.2642647766    0.4055617979   -3.3418971251
C        3.8904064108    0.3923151852   -2.6562523236
N       -1.3506357506    0.2568049784   -6.5472218793
N        3.0004514338    1.4710046371   -3.1162512368
H       -1.3942057029    1.8333354416   -4.4139634770
H        1.2146610640   -0.6353985722   -6.7938108575
H        0.4744594156    2.3376370691   -2.9010576631
H        3.0736878690   -0.1127765142   -5.3008283249
H        5.4837132719    2.5633611698   -3.4256492915
H        6.2460166540    1.8232383740   -2.0067995881
H        7.0149003414    1.6848565565   -3.5952958493
H       -0.4231373324    0.2404618495   -8.4856021887
H       -2.0885632662   -0.3885589757   -8.3839803288
H       -0.7491643351   -1.3513341055   -7.7617336889
H        5.8336936780   -0.4639223320   -2.9873055183
H        5.1309859928    0.2728750996   -4.4218046577
H        3.4061821503   -0.5812453021   -2.8086505740
H        4.0379941407    0.5086757305   -1.5751540051
H       -2.0278019195    1.0099772366   -6.5647448401
H        2.6821753766    2.0488865854   -2.3481072700
28   
Generated by ForceBalance from scan.xyz: Frame 22 of 24
C       -0.3787408744    1.4930411708   -4.6582412377
C        1.0126533376   -0.0600034171   -5.8537707910
C        0.6534284952    1.7273704568   -3.7569818335
C        2.0509457613    0.1738422435   -4.9429797448
C       -0.2232231467    0.5921376063   -5.7306046590
C        1.8976280923    1.0760653478   -3.8797688789
C        5.9551657186    1.7864181272   -3.1441639476
C       -1.0681005672   -0.3140531084   -7.8694637860
C        5.2304154353    0.4658333013   -3.4195094201
C        3.9201233666    0.3285192730   -2.6287489046
N       -1.3092645022    0.3463492146   -6.5949418916
N        2.9303784823    1.3562692208   -2.9653313693
H       -1.3307093208    2.0036734485   -4.5232842008
H        1.1849725145   -0.7606782212   -6.6642861136
H        0.4947303608    2.4277315595   -2.9383220164
H        2.9910788942   -0.3486968449   -5.0854050196
H        5.3127441897    2.6350873444   -3.3974679810
H        6.2283378505    1.8733024553   -2.0851583403
H        6.8750024264    1.8660675791   -3.7331417323
H       -0.2791266221    0.1646959270   -8.4726644407
H       -1.9967683396   -0.3140998030   -8.4461295956
H       -0.7842542843   -1.3592584993   -7.7069950802
H        5.8776419707   -0.3824880825   -3.1603942931
H        5.0198295011    0.3827365470   -4.4916179580
H        3.4951643741   -0.6743134709   -2.7773305189
H        4.1480114731    0.4207825371   -1.5601080636
H       -1.9080911175    1.1584623555   -6.6867610387
H        2.5817867531    1.8449184541   -2.1507430930
28   
Generated by ForceBalance from scan.xyz: Frame 23 of 24
C       -0.3030656370    1.5710347167   -4.6939081485
C        0.9970184010   -0.1366164831   -5.7747389045
C        0.7064046057    1.7504010230   -3.7569663868
C        2.0078731718    0.0312584536   -4.8177132934
C       -0.1801794079    0.6229291036   -5.7303518817
C        1.8873807808    0.9790856879   -3.7911262967
C        5.8508820560    1.8555140382   -3.2599231944
C       -1.0065508843   -0.2808519031   -7.8768989027
C        5.1871009326    0.4999899092   -3.5193541131
C        3.9676124884    0.2512366658   -2.6172703411
N       -1.2441847643    0.4451654151   -6.6379994260
N        2.8897559982    1.2138687908   -2.8327886654
H       -1.2086028658    2.1713303643   -4.6237825914
H        1.1439019339   -0.8762939552   -6.5550669283
H        0.5820458570    2.5005246396   -2.9776453551
H        2.8965717027   -0.5853372003   -4.8963211980
H        5.1364721612    2.6685028187   -3.4195400859
H        6.2165377485    1.9250780273   -2.2279322951
H        6.7043482415    2.0141368442   -3.9275802219
H       -0.1503016194    0.1024131012   -8.4562251286
H       -1.9040198308   -0.2190725575   -8.4979699442
H       -0.8269260380   -1.3404915281   -7.6663502067
H        5.9066625242   -0.3123289069   -3.3528109826
H        4.8836571562    0.4384154291   -4.5700876204
H        3.6069314355   -0.7803913663   -2.7479867811
H        4.2843483020    0.3425482209   -1.5720771689
H       -1.7595749836    1.3049334584   -6.7859416780
H        2.5171483011    1.6014332524   -1.9760474087
28   
Generated by ForceBalance from scan.xyz: Frame 24 of 24
C       -0.3136805466    1.5969047832   -4.6985378175
C        0.9024643455   -0.2110295433   -5.7103996122
C        0.6533243849    1.6979366319   -3.7070698535
C        1.8834927163   -0.1034351960   -4.7144063593
C       -0.2135297565    0.6365624018   -5.7262623437
C        1.7869194695    0.8564943321   -3.6956101552
C        5.5571448306    1.9221640877   -3.3067514536
C       -1.0054807032   -0.2188310781   -7.9055690564
C        5.0407881912    0.4930298452   -3.5028118443
C        3.8915077181    0.1313494256   -2.5410604180
N       -1.2446288814    0.5322192915   -6.6821793766
N        2.6989465144    0.9563757923   -2.6346009461
H       -1.1783800644    2.2577438413   -4.6684177400
H        1.0289105123   -0.9667569327   -6.4789007893
H        0.5303741783    2.4343670263   -2.9149152318
H        2.7283754127   -0.7826324732   -4.7521716157
H        4.7764059749    2.6584435291   -3.5266980421
H        5.8955126590    2.0853880242   -2.2759190180
H        6.4013168052    2.1336628099   -3.9710669506
H       -0.0966341815    0.0942057141   -8.4458025801
H       -1.8658814570   -0.0942237379   -8.5683041980
H       -0.9165342253   -1.2874592771   -7.6827187943
H        5.8574461210   -0.2229536474   -3.3415874824
H        4.7108298954    0.3656927877   -4.5393449132
H        3.5964032686   -0.9137244278   -2.6856304685
H        4.2562677573    0.2065587015   -1.5091731157
H       -1.6875743672    1.4265024971   -6.8569731491
H        2.7891403631    1.8868292884   -2.2487005609
