19   
Generated by ForceBalance from scan.xyz: Frame 1 of 24
C        1.8412809231   -0.3397741481   -0.4116127146
C        0.7966823236   -0.1660256377    0.5007596077
C        3.0258295510   -0.9617452720   -0.0221466290
C        2.1462685469   -1.2481508189    2.2208029739
C        0.9545044531   -0.6234554548    1.8135120531
C        3.1857194343   -1.4108157858    1.2997190911
C       -0.1739238479   -0.4297397521    2.7620693029
C        4.4780992373   -2.7561527125    2.7969898043
O       -1.2382959927    0.0970449551    2.4891470801
O        0.0859878070   -0.9083813699    4.0135631499
O        4.3854515155   -2.0014990761    1.5900950901
H        1.7302737440    0.0048129336   -1.4361071496
H       -0.1344931762    0.3112094700    0.2148209907
H        3.8435728175   -1.1094139024   -0.7216987629
H        2.2384344742   -1.5886898235    3.2439064883
H        5.4497387644   -3.2508516613    2.7654790126
H        3.6828783259   -3.5090911115    2.8544346770
H        4.4328639384   -2.1085649026    3.6811015824
H       -0.7171222709   -0.7248209390    4.5369336812
19   
Generated by ForceBalance from scan.xyz: Frame 2 of 24
C        1.8313488159   -0.3893431472   -0.4068376118
C        0.7776273584   -0.2230117246    0.4948255438
C        3.0410395690   -0.9435637292    0.0121268318
C        2.1656574070   -1.1666983869    2.2639251419
C        0.9491822131   -0.6164129133    1.8277690235
C        3.2155307476   -1.3197123613    1.3530708803
C       -0.1916015929   -0.4332970069    2.7635964019
C        4.4765337994   -2.7935047821    2.7508723833
O       -1.2771414792    0.0344768976    2.4676774590
O        0.0843030291   -0.8476634263    4.0340200109
O        4.4390017408   -1.8402480702    1.6871607360
H        1.7078174354   -0.0976783535   -1.4462315968
H       -0.1731756128    0.1982516439    0.1862412257
H        3.8660587230   -1.0894519066   -0.6791836985
H        2.2743408429   -1.4593478785    3.3008511830
H        5.4600974677   -3.2630947903    2.6985355079
H        3.6959904535   -3.5527658568    2.6243658797
H        4.3631192036   -2.3130366464    3.7301545810
H       -0.7276624290   -0.6776552554    4.5482439294
19   
Generated by ForceBalance from scan.xyz: Frame 3 of 24
C        1.8513291477   -0.4357088898   -0.3932367628
C        0.7889710982   -0.2477527761    0.4921090296
C        3.0687130178   -0.9486866918    0.0606228293
C        2.1796048775   -1.0770875484    2.3135034864
C        0.9563599911   -0.5734498105    1.8451329084
C        3.2380360686   -1.2560112723    1.4176352898
C       -0.1947177840   -0.3648582756    2.7629642100
C        4.4727191106   -2.8595514006    2.6823586623
O       -1.2830288062    0.0739174966    2.4346927983
O        0.0749410889   -0.7180563107    4.0526704309
O        4.4696290238   -1.7284782412    1.8054349706
H        1.7301171764   -0.1944781515   -1.4457536706
H       -0.1669724730    0.1409280426    0.1573927764
H        3.9023336159   -1.1107487197   -0.6166309924
H        2.2937717937   -1.3139846552    3.3646303573
H        5.4981071086   -3.2334419550    2.6891884323
H        3.7963488028   -3.6394815996    2.3138185425
H        4.1885283811   -2.5844967320    3.7049210404
H       -0.7434852552   -0.5357648832    4.5522601870
19   
Generated by ForceBalance from scan.xyz: Frame 4 of 24
C        1.8270495121   -0.5015674758   -0.3576804606
C        0.7631981092   -0.3020506014    0.5216883146
C        3.0587055876   -0.9648811484    0.1160965019
C        2.1754433661   -1.0124628974    2.3740861617
C        0.9398757518   -0.5599101396    1.8894277644
C        3.2330540576   -1.2138783689    1.4824814490
C       -0.2124365826   -0.3292208400    2.8005086038
C        4.5107024514   -2.9036620183    2.5583910865
O       -1.3092967450    0.0735071568    2.4549060791
O        0.0668080829   -0.6179508339    4.1036761773
O        4.4768084634   -1.6245993832    1.9150347717
H        1.6990968842   -0.3038873060   -1.4184509685
H       -0.2017805665    0.0507843547    0.1731261717
H        3.8971191216   -1.1293919640   -0.5547777048
H        2.3089346674   -1.1896501534    3.4353041841
H        5.5583547885   -3.0981080911    2.7949312264
H        4.1322440464   -3.6840525061    1.8867133616
H        3.9258041134   -2.9101206448    3.4855643572
H       -0.7529021134   -0.4267442187    4.5978245863
19   
Generated by ForceBalance from scan.xyz: Frame 5 of 24
C        1.8648696229   -0.5734617329   -0.3195637037
C        0.7825640030   -0.3397866790    0.5279870820
C        3.0910580088   -1.0005307234    0.2022643507
C        2.1590471766   -0.9469355763    2.4407527798
C        0.9307106020   -0.5272369577    1.9109260351
C        3.2354903885   -1.1823511568    1.5818093954
C       -0.2424130150   -0.2592084950    2.7844932259
C        4.5353310580   -2.9369137071    2.4863222116
O       -1.3347625891    0.1144540899    2.3945564850
O        0.0111690373   -0.4783469773    4.1058493697
O        4.4648100523   -1.5632751721    2.0851194775
H        1.7575029911   -0.4254566041   -1.3906575500
H       -0.1768128103   -0.0104636338    0.1426389407
H        3.9457917637   -1.1840326802   -0.4429069565
H        2.2816474543   -1.0748199139    3.5107793767
H        5.5415113756   -3.0927029767    2.8800593853
H        4.3672104615   -3.6015130229    1.6291875489
H        3.7987716079   -3.1638066116    3.2669531574
H       -0.8200991414   -0.2694863136    4.5728136281
19   
Generated by ForceBalance from scan.xyz: Frame 6 of 24
C        1.9022759491   -0.6542470949   -0.2899816510
C        0.7986950748   -0.3763426760    0.5166493060
C        3.1119501602   -1.0584110029    0.2846094302
C        2.1177641050   -0.9033309470    2.4926425270
C        0.9074543153   -0.4994830952    1.9099486240
C        3.2148668474   -1.1802742429    1.6751636320
C       -0.2886421506   -0.1870362507    2.7363624981
C        4.5851358796   -2.9574708947    2.4001373444
O       -1.3685707180    0.1695695308    2.2985177282
O       -0.0722618182   -0.3425607095    4.0728930516
O        4.4204384339   -1.5425265229    2.2468784722
H        1.8251719921   -0.5523789719   -1.3690362932
H       -0.1474019358   -0.0596728032    0.0899761241
H        3.9840173882   -1.2669533773   -0.3294511219
H        2.2146119628   -0.9905189432    3.5693558574
H        5.5640801238   -3.1081542360    2.8593047723
H        4.5529472387   -3.4657116417    1.4277773692
H        3.8056147820   -3.3756296399    3.0497369000
H       -0.9153262307   -0.1101305815    4.5063780434
19   
Generated by ForceBalance from scan.xyz: Frame 7 of 24
C        1.9094128641   -0.7247370909   -0.2457248322
C        0.7957054153   -0.3989449951    0.5289868455
C        3.1000579020   -1.1307550235    0.3647718345
C        2.0653546372   -0.8913303080    2.5461409194
C        0.8759212135   -0.4790617632    1.9268383505
C        3.1726974149   -1.2154538346    1.7611272503
C       -0.3297427355   -0.1178756584    2.7189804307
C        4.6689029318   -2.9671631366    2.2956442918
O       -1.3937288298    0.2440604859    2.2475440022
O       -0.1416087865   -0.2303487796    4.0638502740
O        4.3520841380   -1.5730578080    2.3855961795
H        1.8564880731   -0.6537602944   -1.3287151966
H       -0.1351295486   -0.0774960031    0.0733954476
H        3.9780618450   -1.3668723086   -0.2306025041
H        2.1403864270   -0.9525679987    3.6261566794
H        5.6170592506   -3.1028222221    2.8193325833
H        4.7804449978   -3.2872506726    1.2521796233
H        3.8914809418   -3.5741230436    2.7767616219
H       -0.9883302831    0.0317762798    4.4725439742
19   
Generated by ForceBalance from scan.xyz: Frame 8 of 24
C        1.9139962936   -0.8042318908   -0.2071557190
C        0.8048069051   -0.4136248096    0.5428867960
C        3.0806742437   -1.2431359302    0.4267676665
C        2.0280550460   -0.9134057891    2.5868179352
C        0.8660894224   -0.4644724909    1.9431107126
C        3.1322253759   -1.3038918052    1.8262583078
C       -0.3325023300   -0.0348798976    2.7118547872
C        4.7689607985   -2.9884799102    2.2024431885
O       -1.3728263065    0.3660031289    2.2194619759
O       -0.1671157582   -0.1293973658    4.0609467856
O        4.2771462983   -1.6768425413    2.4984982674
H        1.8788524478   -0.7567893524   -1.2921794248
H       -0.1060894420   -0.0653837925    0.0673622636
H        3.9500845428   -1.5244195359   -0.1606335569
H        2.0867373886   -0.9565136376    3.6685478158
H        5.6249220430   -3.1482048543    2.8605381675
H        5.0978553850   -3.0774180959    1.1602771891
H        4.0011180287   -3.7449676740    2.4053841132
H       -1.0065183029    0.1780292877    4.4528020631
19   
Generated by ForceBalance from scan.xyz: Frame 9 of 24
C        1.9013583086   -0.8612923482   -0.1679206153
C        0.8024572058   -0.4045255582    0.5572519989
C        3.0416074765   -1.3381786224    0.4885037943
C        1.9774913528   -0.9155215128    2.6266826166
C        0.8461107892   -0.4292929997    1.9598020664
C        3.0734731078   -1.3750376631    1.8897248655
C       -0.3403287732    0.0698023993    2.7053284367
C        4.8496696469   -2.9498893547    2.1466096597
O       -1.3522338016    0.5142023598    2.1915403589
O       -0.2000868562   -0.0140896393    4.0579778169
O        4.1804191775   -1.7705681754    2.6024115748
H        1.8815336554   -0.8385844688   -1.2541574700
H       -0.0865058130   -0.0271705666    0.0630841321
H        3.8975356051   -1.6752965506   -0.0881728635
H        2.0211644735   -0.9391438365    3.7096455697
H        5.5261321003   -3.2435454520    2.9511814197
H        5.4383415725   -2.7608271234    1.2407697787
H        4.1328235375   -3.7564546779    1.9538668648
H       -1.0291407096    0.3396433990    4.4323712165
19   
Generated by ForceBalance from scan.xyz: Frame 10 of 24
C        1.8814699795   -0.9311933172   -0.1420638787
C        0.7958353176   -0.4328783009    0.5731630389
C        3.0016947775   -1.4484127162    0.5208468862
C        1.9413086744   -0.9779399720    2.6512351964
C        0.8325822311   -0.4559986632    1.9770138500
C        3.0261109673   -1.4807936919    1.9223706837
C       -0.3392888346    0.0858143533    2.7158252340
C        4.9296136387   -2.9205147976    2.0696729120
O       -1.3319090180    0.5639710122    2.1948188221
O       -0.2092125876    0.0019098315    4.0695532780
O        4.0985151829   -1.9180906472    2.6557489810
H        1.8686190589   -0.9139645312   -1.2285233371
H       -0.0766433138   -0.0264044929    0.0729694971
H        3.8422902142   -1.8209558908   -0.0554118858
H        1.9776882543   -0.9996796057    3.7344983886
H        5.5541895411   -3.3036568741    2.8781732450
H        5.5764921344   -2.5034220160    1.2879910524
H        4.3279689283   -3.7353060397    1.6500460552
H       -1.0277380678    0.3852027764    4.4379202511
19   
Generated by ForceBalance from scan.xyz: Frame 11 of 24
C        1.8659037248   -0.9747223854   -0.1274332830
C        0.7944134772   -0.4422454323    0.5822245971
C        2.9622089286   -1.5391636348    0.5394078806
C        1.9049389847   -1.0403266489    2.6648009928
C        0.8207999993   -0.4768274403    1.9870046694
C        2.9787827681   -1.5769875875    1.9407812331
C       -0.3363178708    0.1007223066    2.7221203924
C        4.9840890717   -2.8796396315    2.0258304917
O       -1.3102238790    0.6131296399    2.1983982018
O       -0.2162259768    0.0075953833    4.0761810718
O        4.0104580028   -2.0767923112    2.6886832112
H        1.8614684013   -0.9526011992   -1.2138952020
H       -0.0593164183   -0.0014346253    0.0789416935
H        3.7872041162   -1.9412454113   -0.0382578302
H        1.9323199204   -1.0706682504    3.7481465726
H        5.6239494897   -3.2823498639    2.8120800379
H        5.5949237397   -2.2839910522    1.3360794989
H        4.5122171729   -3.7044544121    1.4781400386
H       -1.0240813859    0.4155339373    4.4416131658
19   
Generated by ForceBalance from scan.xyz: Frame 12 of 24
C        1.8348628211   -1.0094134673   -0.1388218018
C        0.7761384607   -0.4475500348    0.5666730799
C        2.9045816433   -1.6211274476    0.5302734018
C        1.8459560273   -1.1044335848    2.6518989802
C        0.7873017247   -0.4984635987    1.9714128501
C        2.9090054678   -1.6681995356    1.9314463444
C       -0.3566784745    0.1096304828    2.7026259879
C        5.0022835846   -2.8258287178    2.0049227190
O       -1.3119257440    0.6536716837    2.1764706945
O       -0.2475293628    0.0061530902    4.0568455157
O        3.8978354421   -2.2379742066    2.6860341617
H        1.8400320284   -0.9776697743   -1.2250404316
H       -0.0567539845    0.0282721279    0.0604489682
H        3.7160965548   -2.0506843426   -0.0462527527
H        1.8620703031   -1.1478322849    3.7350318308
H        5.6599164439   -3.2134272955    2.7838684478
H        5.5453758441   -2.0828193726    1.4078106902
H        4.6799165075   -3.6511739718    1.3580508010
H       -1.0456799516    0.4351286102    4.4194871059
19   
Generated by ForceBalance from scan.xyz: Frame 13 of 24
C        1.8217854974   -1.0546884756   -0.1299170652
C        0.7809648565   -0.4666268763    0.5815033817
C        2.8658323982   -1.7139055797    0.5338246134
C        1.8228936946   -1.1890380332    2.6600926140
C        0.7864522368   -0.5390846487    1.9850765336
C        2.8688662757   -1.7761400018    1.9344160804
C       -0.3388215131    0.0961477672    2.7220435876
C        5.0374836184   -2.7828215717    2.0287998520
O       -1.2773895997    0.6725674884    2.2003447953
O       -0.2324904065   -0.0219057846    4.0753117080
O        3.8215778560   -2.4190326834    2.6777368410
H        1.8299497513   -1.0096807705   -1.2156492597
H       -0.0335390213    0.0452585456    0.0804841598
H        3.6613728266   -2.1693558726   -0.0455480265
H        1.8340052792   -1.2489235232    3.7424964545
H        5.6981028458   -3.1480273472    2.8161955744
H        5.4978579615   -1.9184655321    1.5349469143
H        4.8782420668   -3.5823283299    1.2945617215
H       -1.0181196143    0.4263064676    4.4420229604
19   
Generated by ForceBalance from scan.xyz: Frame 14 of 24
C        1.7946979058   -1.0858679019   -0.1485092334
C        0.7769347874   -0.4668246456    0.5722396886
C        2.8108854367   -1.7922762066    0.5073038709
C        1.7928771030   -1.2494272626    2.6413356177
C        0.7789250380   -0.5545625891    1.9739815917
C        2.8144136978   -1.8650320221    1.9076104131
C       -0.3223141435    0.1136134923    2.7180241232
C        5.0425317817   -2.7183920441    2.0717369298
O       -1.2419356721    0.7258978565    2.2034477728
O       -0.2171132637   -0.0190905895    4.0699796412
O        3.7362811807   -2.5763623713    2.6311492198
H        1.8015726294   -1.0304201167   -1.2337497061
H       -0.0180982238    0.0806501150    0.0774714493
H        3.5885034286   -2.2776368218   -0.0733628132
H        1.8024008337   -1.3219910609    3.7229625682
H        5.6783241939   -3.0813664760    2.8808031965
H        5.4218950423   -1.7564878655    1.7074189175
H        5.0553917407   -3.4498991556    1.2543164136
H       -0.9864622406    0.4520594484    4.4424292625
19   
Generated by ForceBalance from scan.xyz: Frame 15 of 24
C        1.7601663283   -1.1119356055   -0.1814926295
C        0.7809087955   -0.4553966185    0.5614264117
C        2.7541287533   -1.8656364533    0.4528608923
C        1.7947161677   -1.2965017479    2.6073240996
C        0.7985202982   -0.5542451887    1.9612647275
C        2.7760153235   -1.9466284855    1.8526869418
C       -0.2632017229    0.1528225604    2.7264968872
C        5.0435479603   -2.6493509929    2.1192924423
O       -1.1645850709    0.8076550204    2.2324303473
O       -0.1428235388    0.0034797939    4.0753670547
O        3.6793983256   -2.7186102079    2.5441243899
H        1.7497314818   -1.0495136696   -1.2662890908
H        0.0018315980    0.1286093260    0.0831402791
H        3.5003426356   -2.3864328613   -0.1390656254
H        1.8176346013   -1.3792094988    3.6880823795
H        5.6306481826   -3.1129576709    2.9139845788
H        5.3596465178   -1.6083218563    1.9855070561
H        5.2086285885   -3.2038520811    1.1876112291
H       -0.8860663515    0.5024264465    4.4643274852
19   
Generated by ForceBalance from scan.xyz: Frame 16 of 24
C        1.7063851861   -1.1785454428   -0.2198931364
C        0.7654540066   -0.4846823849    0.5408486549
C        2.6821790438   -1.9636609785    0.4021979414
C        1.7860321350   -1.3552359021    2.5716808483
C        0.8042688750   -0.5788109239    1.9396024278
C        2.7246437623   -2.0444677088    1.8009967737
C       -0.2176781972    0.1689535211    2.7197639778
C        5.0116612201   -2.5531656277    2.2127180807
O       -1.0981512114    0.8607584192    2.2385036323
O       -0.0845400052    0.0123917219    4.0666275431
O        3.6322977679   -2.8482338233    2.4583939217
H        1.6761782072   -1.1204035382   -1.3045498738
H       -0.0017250376    0.1244558369    0.0744704177
H        3.3985495605   -2.5208177309   -0.1947972770
H        1.8250906152   -1.4353616874    3.6521802813
H        5.5854730459   -3.2240547677    2.8545476616
H        5.2370956705   -1.5116000749    2.4722044360
H        5.2895210824   -2.7338727732    1.1675776092
H       -0.8017784410    0.5398162306    4.4666918639
19   
Generated by ForceBalance from scan.xyz: Frame 17 of 24
C        1.6488245612   -1.2216561542   -0.2656630362
C        0.7549111180   -0.4951288734    0.5216418476
C        2.6134666010   -2.0388827165    0.3315931405
C        1.7961729231   -1.4028578739    2.5253190163
C        0.8270251158   -0.5895032203    1.9190075257
C        2.6856123336   -2.1242934136    1.7279678023
C       -0.1463516518    0.1946153724    2.7247897040
C        4.9511525237   -2.4753321366    2.3080171062
O       -1.0091999180    0.9226067113    2.2656159260
O        0.0120771897    0.0281321553    4.0678773162
O        3.6029970839   -2.9587454017    2.3371677209
H        1.5903358074   -1.1611882996   -1.3490036788
H       -0.0031594460    0.1405359436    0.0759875735
H        3.3001874045   -2.6234603838   -0.2748796168
H        1.8582380773   -1.4870481460    3.6046067080
H        5.5612987060   -3.2315514595    2.8055219050
H        5.0336819314   -1.5222141855    2.8456600968
H        5.3069820448   -2.3396068300    1.2791153571
H       -0.6743903656    0.5817468349    4.4861439501
19   
Generated by ForceBalance from scan.xyz: Frame 18 of 24
C        1.5867167183   -1.2507578306   -0.3168123855
C        0.7373618994   -0.5065178684    0.5019773445
C        2.5596211849   -2.0836799203    0.2459113883
C        1.8321417876   -1.4342233853    2.4672339822
C        0.8596248903   -0.6000508874    1.8964641939
C        2.6776378902   -2.1729498365    1.6376790617
C       -0.0682884344    0.2027181571    2.7365586323
C        4.8906625390   -2.4146237129    2.4163615672
O       -0.9335400373    0.9464011128    2.3083052272
O        0.1369552463    0.0348085328    4.0733635747
O        3.6129975238   -3.0242245571    2.1961378646
H        1.4906264038   -1.1879832458   -1.3973153057
H       -0.0242829800    0.1435776901    0.0839851472
H        3.2205486896   -2.6782648802   -0.3791381170
H        1.9264766633   -1.5214632568    3.5441494053
H        5.5315970540   -3.1848950771    2.8496722798
H        4.8082580858   -1.5700175591    3.1123437038
H        5.3267174206   -2.0613068194    1.4730768942
H       -0.5233221275    0.6013746237    4.5157643045
19   
Generated by ForceBalance from scan.xyz: Frame 19 of 24
C        1.4933375998   -1.2582000171   -0.3457203883
C        0.6947035127   -0.5082548284    0.5168664062
C        2.4935005240   -2.0927134215    0.1657359768
C        1.8877577559   -1.4407694477    2.4217856156
C        0.8927794328   -0.6000902529    1.9032283460
C        2.6855820488   -2.1841156352    1.5484137917
C        0.0154387284    0.2071556713    2.7919756352
C        4.8362271752   -2.3936947573    2.5052376328
O       -0.8729387719    0.9502853990    2.4132152872
O        0.2986574127    0.0451225894    4.1154957266
O        3.6485065493   -3.0455350494    2.0389708880
H        1.3411880626   -1.1948764377   -1.4197472352
H       -0.0845500754    0.1461902369    0.1403069740
H        3.1226655711   -2.6870625220   -0.4910595023
H        2.0309588730   -1.5280456260    3.4933524562
H        5.4960081122   -3.1807453769    2.8753231665
H        4.6138314232   -1.6915271607    3.3182308321
H        5.3294675376   -1.8525604103    1.6876211306
H       -0.3347939945    0.6137991758    4.5930243847
19   
Generated by ForceBalance from scan.xyz: Frame 20 of 24
C        1.4131314273   -1.2628040634   -0.3845497138
C        0.6518381013   -0.5122547503    0.5109047881
C        2.4484464842   -2.0804272915    0.0797971187
C        1.9533600085   -1.4173043531    2.3600589707
C        0.9254177207   -0.5904618509    1.8847632226
C        2.7129536920   -2.1606415869    1.4519665684
C        0.0895171847    0.2169725185    2.8122869990
C        4.7929098361   -2.3939941339    2.5769769945
O       -0.8264553721    0.9465177487    2.4754100050
O        0.4456885912    0.0718898491    4.1205815304
O        3.7114707329   -3.0145695322    1.8721691857
H        1.2078193187   -1.2086736062   -1.4501870150
H       -0.1515846937    0.1324531724    0.1702540847
H        3.0538527805   -2.6694647302   -0.6033084799
H        2.1441685397   -1.4872513129    3.4250070611
H        5.5082209670   -3.1881565431    2.7982713016
H        4.4598107955   -1.9384855521    3.5168461370
H        5.2716063296   -1.6283719707    1.9540172939
H       -0.1674254273    0.6392127848    4.6254643847
19   
Generated by ForceBalance from scan.xyz: Frame 21 of 24
C        1.3707742481   -1.3162934175   -0.4236681922
C        0.6200441258   -0.5610546436    0.4784738105
C        2.4412168151   -2.0943230456    0.0234188393
C        2.0119852052   -1.3835552485    2.3020926257
C        0.9465982471   -0.5949248874    1.8411478457
C        2.7534058076   -2.1396081241    1.3891456966
C        0.1301303235    0.2225362326    2.7770917436
C        4.7322421431   -2.3918465484    2.6992748582
O       -0.8115748355    0.9256265816    2.4552828372
O        0.5367599741    0.1209487745    4.0752346017
O        3.7988956893   -2.9483591018    1.7678595088
H        1.1317831826   -1.2912593607   -1.4833514901
H       -0.2092287064    0.0563620655    0.1497702516
H        3.0420834130   -2.6800625898   -0.6663135741
H        2.2434051607   -1.4049084506    3.3603934435
H        5.5947487462   -3.0606847836    2.6985858644
H        4.3193325533   -2.3464625455    3.7139154036
H        5.0417977974   -1.3877160561    2.3870179776
H       -0.0677591939    0.6921741895    4.5860171340
19   
Generated by ForceBalance from scan.xyz: Frame 22 of 24
C        1.3211302540   -1.3231993943   -0.4388892859
C        0.5931715970   -0.5644466576    0.4805328964
C        2.4231799070   -2.0714198258   -0.0245328891
C        2.0818752362   -1.3216864613    2.2576759267
C        0.9800160498   -0.5648936005    1.8263771557
C        2.7967212734   -2.0837367486    1.3283814447
C        0.1903505656    0.2568155408    2.7812671618
C        4.6763106161   -2.4336529549    2.7640102077
O       -0.7755030514    0.9398015030    2.4889899145
O        0.6517868664    0.1835064602    4.0633034542
O        3.8800895549   -2.8573838386    1.6558018711
H        1.0378080680   -1.3236147823   -1.4878860872
H       -0.2615190459    0.0302936105    0.1763622479
H        3.0059611295   -2.6578965506   -0.7289927112
H        2.3581310254   -1.3081918922    3.3046555052
H        5.5998201457   -3.0122178379    2.7087648010
H        4.1825634397   -2.6417015224    3.7208989684
H        4.9046260753   -1.3636027567    2.6962915435
H        0.0602516275    0.7550060841    4.5887404958
19   
Generated by ForceBalance from scan.xyz: Frame 23 of 24
C        1.2848049306   -1.3580710685   -0.4466302194
C        0.5550856276   -0.6114461214    0.4828065371
C        2.4315960862   -2.0474302268   -0.0576184216
C        2.1415719052   -1.2597535803    2.2189504575
C        0.9891596780   -0.5649117354    1.8120524136
C        2.8593266432   -2.0074580748    1.2802990678
C        0.1967751395    0.2402922324    2.7786992564
C        4.6440326236   -2.4566375197    2.8083294588
O       -0.8089413597    0.8729958490    2.5083334876
O        0.7049262863    0.2142477491    4.0451692305
O        3.9905592701   -2.7215103360    1.5683735279
H        0.9630303201   -1.3980613712   -1.4837002071
H       -0.3370922367   -0.0642688483    0.1978247462
H        3.0123514763   -2.6264524987   -0.7698990617
H        2.4499102989   -1.2059289979    3.2549290018
H        5.5814550579   -3.0134247160    2.7762402238
H        4.0476265009   -2.8054882176    3.6601946034
H        4.8546913249   -1.3866104413    2.9234729500
H        0.1066094272    0.7700686682    4.5796587919
19   
Generated by ForceBalance from scan.xyz: Frame 24 of 24
C        1.2654071168   -1.3873780126   -0.4388126241
C        0.5317201559   -0.6495366841    0.4949660985
C        2.4513846548   -2.0178203500   -0.0696575318
C        2.1988378050   -1.1824728940    2.1948089847
C        1.0031918804   -0.5511955787    1.8081312227
C        2.9229685543   -1.9172785722    1.2508181356
C        0.2035815093    0.2395163689    2.7807924530
C        4.6147308971   -2.4982483107    2.8393185614
O       -0.8391867675    0.8169112786    2.5274647602
O        0.7510204394    0.2692018386    4.0308350585
O        4.0954364840   -2.5705369475    1.5137299912
H        0.9113456978   -1.4726119963   -1.4625386147
H       -0.3937055395   -0.1517590364    0.2259665590
H        3.0317160365   -2.5942579574   -0.7844010039
H        2.5350074692   -1.0862998585    3.2187065769
H        5.5383942638   -3.0780630145    2.8289240487
H        3.9182911706   -2.9355862825    3.5651215841
H        4.8379066190   -1.4629089539    3.1244762825
H        0.1439127808    0.8103078429    4.5704751155
