18   
Generated by ForceBalance from scan.xyz: Frame 1 of 24
C        0.2639107618   -1.0007168984    0.6275818659
C        1.3262479195   -0.0847965396    2.5871822365
C       -0.2207034016   -2.0133226313    1.4405641641
C        1.0673293923    0.0082021006    1.2135266090
C        0.7756270058   -1.1611137121    3.3108716839
C        2.6096008254    1.9225304211    0.9000722485
N        0.0169135764   -2.1208550861    2.7597702405
N        0.9645047078   -1.2513076931    4.6899763528
N        1.5383978734    1.0540641473    0.4378602695
H        0.0248982806   -0.9803148602   -0.4325485125
H        1.9237621493    0.6599760921    3.1024602650
H       -0.8385518980   -2.8000659313    1.0089912370
H        2.2736639620    2.5277392549    1.7485349173
H        2.8788791301    2.6082466879    0.0935469417
H        3.5090058399    1.3670150858    1.2054308730
H        1.8371776900   -0.8732382914    5.0379153157
H        0.7612036093   -2.1794134425    5.0448136353
H        1.5397686799    0.8616569776   -0.5550535542
18   
Generated by ForceBalance from scan.xyz: Frame 2 of 24
C        0.2902482292   -0.9841089429    0.6289461001
C        1.2582577398   -0.0330010970    2.6184805795
C       -0.1444440005   -2.0382945204    1.4192323195
C        1.0088754107    0.0680257563    1.2443082583
C        0.7687594737   -1.1532513643    3.3177547474
C        2.6554139908    1.8720052361    0.8668283069
N        0.0800019314   -2.1501846472    2.7392448353
N        0.9425038565   -1.2548963387    4.6975712916
N        1.4411080204    1.1541813082    0.4915970191
H        0.0758705301   -0.9679072418   -0.4366283084
H        1.7971178798    0.7431151541    3.1525484291
H       -0.6987619034   -2.8588894319    0.9649553602
H        2.4881875340    2.4686051857    1.7688323320
H        2.9148870267    2.5645482514    0.0627039819
H        3.5071135612    1.1999915526    1.0479346901
H        1.7809235449   -0.8238366075    5.0672479831
H        0.7945862641   -2.1994967680    5.0356825962
H        1.3749880422    0.9799563692   -0.5038588122
18   
Generated by ForceBalance from scan.xyz: Frame 3 of 24
C        0.3410804956   -0.9585938906    0.6403402916
C        1.1943817154    0.0244805006    2.6641995514
C       -0.0543248557   -2.0462483894    1.4092633816
C        0.9743683607    0.1266963141    1.2859415022
C        0.7596351393   -1.1314403606    3.3394013464
C        2.7064511280    1.8144881519    0.8067135245
N        0.1447575907   -2.1602843818    2.7314407498
N        0.9039092528   -1.2411186493    4.7214159808
N        1.3759605796    1.2523687776    0.5598711975
H        0.1609163756   -0.9463991019   -0.4316431700
H        1.6644611753    0.8312230346    3.2183616964
H       -0.5462289298   -2.8933274667    0.9322502954
H        2.7433279438    2.3020242561    1.7844456835
H        2.9053447006    2.5819647947    0.0544502918
H        3.5026237113    1.0567917742    0.7661979289
H        1.7043280105   -0.7656793672    5.1195375341
H        0.8002930306   -2.1961229524    5.0462680995
H        1.2179576727    1.1110208489   -0.4320447572
18   
Generated by ForceBalance from scan.xyz: Frame 4 of 24
C        0.3971223508   -0.9354480326    0.6663176011
C        1.1229390792    0.0770662320    2.7237095797
C        0.0373197264   -2.0515691212    1.4154802747
C        0.9450775882    0.1755046636    1.3405026990
C        0.7406969263   -1.1086865222    3.3775878065
C        2.7340062952    1.7420122552    0.7325009748
N        0.2045499509   -2.1649017528    2.7407520901
N        0.8462293302   -1.2235094379    4.7622471670
N        1.3228623244    1.3400947617    0.6453894869
H        0.2546374694   -0.9249091022   -0.4113036646
H        1.5166602400    0.9140877183    3.2933181579
H       -0.3928052666   -2.9206041915    0.9186638558
H        2.9831810281    2.0272903588    1.7570687802
H        2.8881290223    2.6202922910    0.0996908824
H        3.4254300641    0.9460313186    0.4178941726
H        1.6033194985   -0.7059193134    5.1911987840
H        0.7850624698   -2.1851873774    5.0778682480
H        1.0530405020    1.2546155785   -0.3302856552
18   
Generated by ForceBalance from scan.xyz: Frame 5 of 24
C        0.4666955687   -0.9106574290    0.6899458199
C        1.0623023801    0.1116872456    2.7836268997
C        0.1432883202   -2.0564547214    1.4130267296
C        0.9271497700    0.2163448299    1.3983944882
C        0.7287001080   -1.1032157528    3.4115925036
C        2.7417603840    1.6630056951    0.6508490166
N        0.2739721523   -2.1767817606    2.7412712233
N        0.7930735799   -1.2321219841    4.7968310588
N        1.2916061727    1.4195757713    0.7424626736
H        0.3617522553   -0.8916548523   -0.3917931891
H        1.3876973656    0.9683697319    3.3676255150
H       -0.2231502367   -2.9411663851    0.8934017872
H        3.1611536462    1.7751646809    1.6535564302
H        2.9095832232    2.5992889067    0.1108374350
H        3.2832560742    0.8513902082    0.1411633888
H        1.4999153546   -0.6749991890    5.2604449706
H        0.7751792321   -2.1992442235    5.1007803791
H        0.9052856792    1.4084919685   -0.1985718912
18   
Generated by ForceBalance from scan.xyz: Frame 6 of 24
C        0.5557255455   -0.8765073035    0.7107017082
C        1.0179055305    0.1320295768    2.8438667901
C        0.2540824791   -2.0493893777    1.3997364810
C        0.9352648527    0.2540926605    1.4588944426
C        0.7119898520   -1.1088783912    3.4383660869
C        2.7367110617    1.5965234106    0.5459190014
N        0.3340885540   -2.1867889369    2.7305634855
N        0.7240935270   -1.2598904942    4.8219760258
N        1.2960888099    1.4927518274    0.8456462618
H        0.4945477841   -0.8400509664   -0.3738860035
H        1.2870470535    0.9944432617    3.4476536936
H       -0.0526755804   -2.9399605072    0.8523501247
H        3.3031844408    1.5836232766    1.4809587052
H        2.9268230426    2.5520974416    0.0482612705
H        3.1092848597    0.7790904693   -0.0908865943
H        1.3799637030   -0.6760206964    5.3257679818
H        0.7374839382   -2.2313208906    5.1119677577
H        0.7873510281    1.5734877431   -0.0329565350
18   
Generated by ForceBalance from scan.xyz: Frame 7 of 24
C       -0.2202876748    0.0879003955    1.3577687020
C        1.6510195239   -0.4731869936    2.7597569370
C       -0.8833836147   -0.9965473276    1.9190047158
C        1.0990856903    0.3513438888    1.7781607435
C        0.8811861701   -1.5375949901    3.2743598574
C        2.2655662151    1.3752620077   -0.1046770739
N       -0.3639120966   -1.8077285190    2.8560609491
N        1.3760018818   -2.3457312176    4.2959645309
N        1.7856872597    1.4878229087    1.2838356106
H       -0.7095891241    0.7268802789    0.6297526187
H        2.6582563380   -0.2949435268    3.1320236271
H       -1.9030076898   -1.2267023702    1.6125853507
H        2.9565741567    0.5318742628   -0.2553353374
H        2.7706616769    2.3049676391   -0.3819601226
H        1.4150898214    1.2421090781   -0.7779146327
H        2.3803820504   -2.4736594240    4.3096996427
H        0.8589922380   -3.2132523654    4.3888313584
H        2.5816065101    1.6803685958    1.8878775404
18   
Generated by ForceBalance from scan.xyz: Frame 8 of 24
C       -0.1265339943    0.0289285720    1.3030258758
C        1.6740511273   -0.5043763896    2.8055381772
C       -0.8219685650   -1.0331795896    1.8670708511
C        1.1755960748    0.2997216511    1.7764146552
C        0.8740428151   -1.5472535499    3.3129528895
C        2.1749479506    1.4706882157   -0.1371560743
N       -0.3546646173   -1.8221921011    2.8487735468
N        1.3172662776   -2.3319282918    4.3760898399
N        1.8973256517    1.4109359936    1.3050199153
H       -0.5846312464    0.6396973733    0.5323162738
H        2.6645898247   -0.3236067641    3.2191978172
H       -1.8275049218   -1.2650026457    1.5179442033
H        2.7324558912    0.5960065040   -0.5038496310
H        2.7522720353    2.3753182763   -0.3466662975
H        1.2397379418    1.5391985287   -0.6972648828
H        2.3191585734   -2.4652609775    4.4373542699
H        0.7911769672   -3.1943456068    4.4653439231
H        2.7651411066    1.5042884469    1.8255538832
18   
Generated by ForceBalance from scan.xyz: Frame 9 of 24
C       -0.0424831075   -0.0321480584    1.2522400289
C        1.6932697723   -0.5169906093    2.8464841736
C       -0.7663577457   -1.0672892806    1.8327530876
C        1.2409392106    0.2539116396    1.7679899880
C        0.8696711728   -1.5353684250    3.3581963746
C        2.0873503184    1.5541019999   -0.1503106789
N       -0.3450221551   -1.8212960140    2.8596327615
N        1.2664554800   -2.2856044547    4.4646855158
N        1.9965812120    1.3302908688    1.2952769571
H       -0.4668344513    0.5359917255    0.4319997718
H        2.6661241470   -0.3231550375    3.2947461314
H       -1.7573941605   -1.3082928804    1.4495990358
H        2.4084072749    0.6596418851   -0.7035541462
H        2.8018056854    2.3607524624   -0.3329047480
H        1.1226076133    1.8781925323   -0.5484834302
H        2.2641492378   -2.4283855641    4.5631698958
H        0.7288221415   -3.1401533469    4.5613540355
H        2.9143092183    1.3488671829    1.7276632504
18   
Generated by ForceBalance from scan.xyz: Frame 10 of 24
C        0.0304546920   -0.0947466283    1.1896638220
C        1.7066503990   -0.5413882620    2.8598249956
C       -0.7192652367   -1.1088933669    1.7768221903
C        1.2946172374    0.2044360667    1.7450643258
C        0.8628111973   -1.5421962159    3.3670068595
C        2.0082174174    1.6412622038   -0.1378795333
N       -0.3383866672   -1.8359120150    2.8367034745
N        1.2168283454   -2.2667318597    4.5055789702
N        2.0818546724    1.2449195636    1.2656886231
H       -0.3598100329    0.4411110514    0.3321449609
H        2.6619068920   -0.3354904021    3.3392618236
H       -1.6960868831   -1.3581949223    1.3633109791
H        2.1213383781    0.7934449987   -0.8289692433
H        2.8004816210    2.3668747969   -0.3365385059
H        1.0546293242    2.1342020519   -0.3486465096
H        2.2097331520   -2.4153436423    4.6383014250
H        0.6702648647   -3.1155284498    4.6030191941
H        3.0298616892    1.2120004943    1.6210528760
18   
Generated by ForceBalance from scan.xyz: Frame 11 of 24
C        0.0904202359   -0.1620516984    1.1415617756
C        1.7170254909   -0.5832661709    2.8686970661
C       -0.6904155332   -1.1456304006    1.7416255802
C        1.3428596798    0.1389479417    1.7232020131
C        0.8473602873   -1.5575777932    3.3797387205
C        1.9695500148    1.6986147299   -0.1015504686
N       -0.3472309823   -1.8476318092    2.8298172042
N        1.1615893788   -2.2564734196    4.5463018604
N        2.1705071925    1.1278431371    1.2212497357
H       -0.2679033864    0.3467318731    0.2544408643
H        2.6603905142   -0.3732592251    3.3690846994
H       -1.6594617121   -1.3936701917    1.3092028902
H        1.9563473714    0.9409272636   -0.8989404554
H        2.7784927503    2.4041465322   -0.3043471291
H        1.0283148548    2.2563393685   -0.1399241251
H        2.1482061549   -2.4224043664    4.7032627384
H        0.5958511588   -3.0914496950    4.6532039330
H        3.1330958985    1.0654631914    1.5246358000
18   
Generated by ForceBalance from scan.xyz: Frame 12 of 24
C        0.1176386401   -0.2404001315    1.1014599170
C        1.7298857620   -0.6429749687    2.8493987376
C       -0.6894171932   -1.1807996628    1.7335723159
C        1.3806959517    0.0434144748    1.6727947500
C        0.8314585713   -1.5721630914    3.3920761806
C        1.9529600512    1.7146684995   -0.0871232356
N       -0.3689310282   -1.8512600425    2.8488551247
N        1.1229157213   -2.2346561504    4.5866530407
N        2.2409093556    0.9595447212    1.1159798777
H       -0.2269587394    0.2520138151    0.1996010770
H        2.6808511005   -0.4473877892    3.3413110033
H       -1.6660202260   -1.4142761165    1.3100027624
H        1.7805236987    1.0513555918   -0.9437793424
H        2.8124133559    2.3470388034   -0.3198028176
H        1.0736386373    2.3629630411    0.0298598335
H        2.1038226935   -2.4308360875    4.7455461609
H        0.5309314705   -3.0473569423    4.7208297056
H        3.0794460398    1.1810317386    1.6311613949
18   
Generated by ForceBalance from scan.xyz: Frame 13 of 24
C        0.1611658931   -0.2913060699    1.0444102654
C        1.7572270041   -0.6664570393    2.8098676705
C       -0.6693851291   -1.1905749484    1.7068483800
C        1.4274669910   -0.0168626802    1.6087308361
C        0.8372722633   -1.5554540630    3.3841920360
C        1.9401930793    1.7452874216   -0.0593945778
N       -0.3672891242   -1.8262855392    2.8467288174
N        1.1100394743   -2.1787616128    4.6034820493
N        2.3356771510    0.8364539705    1.0057717400
H       -0.1711215434    0.1753230342    0.1245995296
H        2.7141451023   -0.4791182581    3.2933150516
H       -1.6500237715   -1.4168685547    1.2889175725
H        1.6474801023    1.1844964245   -0.9527986087
H        2.7990905735    2.3650572326   -0.3268226468
H        1.1065880337    2.4041256720    0.2252081901
H        2.0864924907   -2.3855210523    4.7761004281
H        0.5028560165   -2.9750250876    4.7653672580
H        3.0555580004    1.1855032261    1.6245344743
18   
Generated by ForceBalance from scan.xyz: Frame 14 of 24
C        0.1501677376   -0.3916342455    1.0074727160
C        1.7269086334   -0.6965404078    2.8014918570
C       -0.6903525294   -1.2594252683    1.6973212519
C        1.4085766686   -0.0927137313    1.5757374968
C        0.8005807970   -1.5643162061    3.4012491305
C        1.8903779176    1.7741227102    0.0271320849
N       -0.3992624801   -1.8511892121    2.8644195432
N        1.0627267060   -2.1398558424    4.6454044567
N        2.3370818249    0.7142537664    0.9276067355
H       -0.1666885483    0.0326427330    0.0617659839
H        2.6774479474   -0.4884048541    3.2892130620
H       -1.6663641805   -1.5026991220    1.2783679739
H        1.4740809546    1.3484911497   -0.8905808187
H        2.7561599410    2.3768211284   -0.2572044171
H        1.1336642322    2.4305101198    0.4804933404
H        2.0370529230   -2.3414601031    4.8349807464
H        0.4506196054   -2.9256587738    4.8368675958
H        3.0907960821    1.0054472010    1.5387734726
18   
Generated by ForceBalance from scan.xyz: Frame 15 of 24
C        0.1654164174   -0.4895168719    0.9541242500
C        1.7203845795   -0.6954592039    2.7786349349
C       -0.6762623504   -1.3331932618    1.6699304577
C        1.4100857702   -0.1476279738    1.5274724004
C        0.7967963401   -1.5521402349    3.4034013252
C        1.8843563437    1.8305573312    0.1327364038
N       -0.3922089423   -1.8722255113    2.8655159874
N        1.0525667457   -2.0720698721    4.6724519262
N        2.3446972164    0.6309817329    0.8388015690
H       -0.1350699686   -0.1181848724   -0.0192615242
H        2.6599083440   -0.4516983486    3.2712641296
H       -1.6425779495   -1.6088231192    1.2488841577
H        1.2737011567    1.5552240562   -0.7307083136
H        2.7578371887    2.3679993245   -0.2449752318
H        1.2975477667    2.5054859280    0.7722824749
H        2.0267138628   -2.2550558814    4.8807864927
H        0.4449644178   -2.8534921387    4.8938689282
H        3.1464683971    0.8381146655    1.4253389216
18   
Generated by ForceBalance from scan.xyz: Frame 16 of 24
C        0.1724983032   -0.5797475619    0.8812438663
C        1.7027742198   -0.6711023984    2.7343480694
C       -0.6724805499   -1.3927037081    1.6262366991
C        1.4020364959   -0.1917659024    1.4561807065
C        0.7797478500   -1.5101277087    3.3894350424
C        1.8960311102    1.8813942119    0.2369413989
N       -0.3968660598   -1.8674470483    2.8524350494
N        1.0266030043   -1.9642271239    4.6845198341
N        2.3341863482    0.5646181692    0.7229383019
H       -0.1039650609   -0.2698651885   -0.1209918495
H        2.6307340328   -0.3883131095    3.2279605914
H       -1.6280822886   -1.7048649929    1.2066150970
H        1.0746188531    1.7652749978   -0.4735458867
H        2.7270641915    2.3542515865   -0.2934786643
H        1.5604650252    2.5471621199    1.0456809834
H        1.9996610222   -2.1264064333    4.9137261893
H        0.4217298274   -2.7367782407    4.9415786746
H        3.1911159707    0.6670275132    1.2597168660
18   
Generated by ForceBalance from scan.xyz: Frame 17 of 24
C        0.1710872634   -0.6826908349    0.8161419082
C        1.6857207502   -0.6482239018    2.6835658897
C       -0.6676532333   -1.4717205130    1.5938041129
C        1.3839417276   -0.2417633709    1.3829682431
C        0.7726307157   -1.4727383903    3.3741293385
C        1.9129845707    1.9123344238    0.3674932331
N       -0.3910680949   -1.8773181891    2.8448572136
N        1.0175118651   -1.8581091539    4.6911817069
N        2.2981528501    0.5092089610    0.6030267566
H       -0.0894345908   -0.4282638933   -0.2061954320
H        2.6046721555   -0.3227680980    3.1675902801
H       -1.6123918413   -1.8266546667    1.1839636808
H        0.9726046031    1.9469990575   -0.1881180578
H        2.6819993511    2.3931418678   -0.2438980762
H        1.7822928380    2.4852049707    1.2979290123
H        1.9915073994   -1.9854128573    4.9375667932
H        0.4264960876   -2.6288293342    4.9834605999
H        3.2072666909    0.4963548707    1.0600706502
18   
Generated by ForceBalance from scan.xyz: Frame 18 of 24
C        0.3048507680   -0.7921886690    0.7958381434
C        1.7403588205   -0.5041306240    2.7029827803
C       -0.5255536616   -1.5553346595    1.6139566177
C        1.4854843221   -0.2664357934    1.3545055585
C        0.8238639765   -1.2762195047    3.4446141168
C        2.0713310140    1.9948053998    0.7065128912
N       -0.2906508959   -1.8031284045    2.9101237246
N        1.0138350957   -1.4975619034    4.8062369895
N        2.3857599969    0.5559792965    0.6107186512
H        0.0475595077   -0.6172512884   -0.2456194255
H        2.6410139575   -0.1050611717    3.1618531706
H       -1.4397999372   -1.9889255396    1.2102301750
H        1.0458021015    2.2378398009    0.3880295976
H        2.7800143141    2.5536362406    0.0881486801
H        2.1919884343    2.3239713059    1.7419843252
H        1.9768622037   -1.5158570763    5.1186500567
H        0.4606529230   -2.2713162100    5.1578554153
H        2.3254306491    0.2883737996   -0.3702228868
18   
Generated by ForceBalance from scan.xyz: Frame 19 of 24
C        0.2870649015   -0.8810150766    0.7585937507
C        1.6909745835   -0.4589007122    2.6646610414
C       -0.5057720093   -1.6637882897    1.5945922956
C        1.4340573137   -0.2730934169    1.3053590860
C        0.8128226137   -1.2562596415    3.4222658819
C        2.1638673123    1.9959594237    0.7936385240
N       -0.2690904575   -1.8596819103    2.8989854642
N        1.0043968852   -1.4273741786    4.7915666579
N        2.2899023668    0.5511599386    0.5316295555
H        0.0257199549   -0.7509851485   -0.2884566317
H        2.5654263307   -0.0049837149    3.1232636099
H       -1.3927851061   -2.1561053229    1.1973088527
H        1.1418517170    2.3735787233    0.6380210200
H        2.8495025622    2.5357790781    0.1341696110
H        2.4523324373    2.2105501642    1.8253156372
H        1.9648765722   -1.3838785333    5.1093935656
H        0.4942944406   -2.2227003010    5.1597157847
H        2.1009898238    0.3839746519   -0.4539234479
18   
Generated by ForceBalance from scan.xyz: Frame 20 of 24
C        0.2760083090   -0.9497275247    0.7228402507
C        1.6301705957   -0.4021278995    2.6331921499
C       -0.4739503579   -1.7638734037    1.5659635288
C        1.3780499027   -0.2567993479    1.2657592735
C        0.7983051190   -1.2434009632    3.3944772895
C        2.2635934168    1.9947907416    0.8524219711
N       -0.2393514403   -1.9237776013    2.8762201480
N        0.9885733764   -1.3782158314    4.7686941145
N        2.1833316753    0.5778663906    0.4678927523
H        0.0169850471   -0.8575085898   -0.3288605233
H        2.4629603435    0.1142470071    3.1021811400
H       -1.3255745894   -2.3152634814    1.1687713426
H        1.2763323835    2.4753270989    0.9200131302
H        2.8700092134    2.5246035954    0.1127447212
H        2.7607252145    2.0969768153    1.8196161998
H        1.9429962145   -1.2755571815    5.0912268980
H        0.5239666862   -2.1972849086    5.1450200314
H        1.8890189963    0.5052672750   -0.5017494915
18   
Generated by ForceBalance from scan.xyz: Frame 21 of 24
C        0.2715982431   -1.0050800898    0.7077089106
C        1.5633693074   -0.3288235021    2.6215756881
C       -0.4335201132   -1.8466245366    1.5590040892
C        1.3217425382   -0.2287138766    1.2468618602
C        0.7830623872   -1.2148739149    3.3876923884
C        2.3608702784    1.9805021795    0.9019292047
N       -0.2022071414   -1.9711290313    2.8751706101
N        0.9687341973   -1.3103415309    4.7666259320
N        2.0707773309    0.6235323971    0.4296758593
H        0.0206387867   -0.9531296618   -0.3487347128
H        2.3410724174    0.2592728800    3.0991902686
H       -1.2451270645   -2.4566194748    1.1637678259
H        1.4635601274    2.5078603346    1.2564848645
H        2.8072186475    2.5466078070    0.0805284731
H        3.0915501963    1.9580516441    1.7148081282
H        1.9150845197   -1.1547949419    5.0920256060
H        0.5462852236   -2.1473228157    5.1534417458
H        1.6931991589    0.6388013338   -0.5115625392
18   
Generated by ForceBalance from scan.xyz: Frame 22 of 24
C        0.2561158841   -1.0283245652    0.6581307937
C        1.4789716984   -0.2619813243    2.5859858096
C       -0.4084974284   -1.9034857853    1.5048782517
C        1.2479779421   -0.1815988564    1.2072957404
C        0.7461058244   -1.1951647863    3.3446154597
C        2.4514906172    1.9581909447    0.9230541834
N       -0.1852391814   -2.0109521565    2.8255303943
N        0.9223579770   -1.2734799977    4.7262308723
N        1.9513858608    0.6949154692    0.3883299267
H        0.0218209787   -1.0019127432   -0.4030465190
H        2.2039294032    0.3801273975    3.0757920514
H       -1.1758014061   -2.5638477322    1.1022231067
H        1.6829771209    2.5206385992    1.4728834694
H        2.8136998116    2.5697599992    0.0933866381
H        3.2986602791    1.7848982304    1.5937563070
H        1.8557148926   -1.0653918001    5.0597397076
H        0.5434645938   -2.1316239386    5.1118816447
H        1.5205009273    0.7937461374   -0.5228901232
18   
Generated by ForceBalance from scan.xyz: Frame 23 of 24
C        0.2816308887   -1.0244888734    0.6257575494
C        1.4436372378   -0.1822393882    2.5614144599
C       -0.3249360250   -1.9435757850    1.4674336395
C        1.2058312748   -0.1067451505    1.1829339236
C        0.7748088452   -1.1685639158    3.3132260453
C        2.5513908633    1.9566953053    0.9141182148
N       -0.0978549769   -2.0427455869    2.7892201471
N        0.9546634338   -1.2411512042    4.6948508773
N        1.8539894792    0.8039907872    0.3656241641
H        0.0568891893   -1.0160184853   -0.4376522394
H        2.1175741357    0.5073816493    3.0587311891
H       -1.0401535127   -2.6566639174    1.0588701487
H        1.9158901863    2.5685870255    1.5714792201
H        2.9036480057    2.5795046720    0.0887560642
H        3.4301036072    1.6372183125    1.4841551036
H        1.8716679069   -0.9725462243    5.0304242755
H        0.6335972590   -2.1245453707    5.0759221043
H        1.3917084638    0.9637863764   -0.5196436911
18   
Generated by ForceBalance from scan.xyz: Frame 24 of 24
C        0.2604587656   -1.0371947465    0.6364356321
C        1.3633390308   -0.1439123099    2.5866037667
C       -0.2886074524   -2.0005424141    1.4672200161
C        1.1195313804   -0.0642348116    1.2075054479
C        0.7534146160   -1.1763855910    3.3249791829
C        2.5871150786    1.9274380985    0.9152229353
N       -0.0607451486   -2.0991266604    2.7892517495
N        0.9327495474   -1.2525480681    4.7070853543
N        1.6990587623    0.8982354963    0.4149806934
H        0.0384053700   -1.0323852526   -0.4276020199
H        1.9920009469    0.5815679731    3.0924008748
H       -0.9521199604   -2.7560273504    1.0475574239
H        2.0959557577    2.5859490371    1.6458651811
H        2.9255592620    2.5405961499    0.0772859833
H        3.4725318601    1.4869502906    1.3901679184
H        1.8308766524   -0.9316969615    5.0479718801
H        0.6685501671   -2.1598781591    5.0755268832
H        1.3637086821    0.9747065101   -0.5332775397
