21   
Generated by ForceBalance from scan.xyz: Frame 1 of 24
C        1.9000394725   -1.1586234264   -0.0577449214
C        2.9981977695   -1.6293162288    2.0463697614
C        0.8429008492   -0.5707825256    0.6244173451
C        1.9392805506   -1.0465502784    2.7390469654
C        2.9898071496   -1.6962799639    0.6456006656
C        0.8529157726   -0.4980340604    2.0316996944
C        4.1212911144   -2.2612324459   -0.1260516918
C       -0.3529507771    0.7977596910    3.8666774527
N        0.8321383256    1.0801505360    4.5265642938
N       -0.2532521210    0.0800582517    2.6751112552
O        4.2937872639   -2.1169641111   -1.3245141980
O       -1.4519783320    1.1336608561    4.2950693751
O        5.0029354248   -2.9566199834    0.6482134770
H        1.9045784882   -1.1981024912   -1.1425503682
H        3.8293133866   -2.0561581971    2.5976853469
H        0.0067461177   -0.1467101216    0.0734924087
H        1.9355100163   -1.0469104362    3.8230301082
H        0.6995100062    1.7771734897    5.2502555828
H        1.6682226501    1.2074359352    3.9669896048
H       -1.1371563136    0.0651373124    2.1801565075
H        5.7099767786   -3.2525839169    0.0439064719
21   
Generated by ForceBalance from scan.xyz: Frame 2 of 24
C        1.9040457869   -1.1681781193   -0.0467613500
C        3.0141157259   -1.6243223696    2.0539271498
C        0.8416667185   -0.5922789865    0.6384192098
C        1.9536125106   -1.0455598442    2.7484431486
C        2.9967258955   -1.7015392001    0.6544251947
C        0.8572694811   -0.5133701761    2.0449002580
C        4.1555308454   -2.2158283502   -0.1149195276
C       -0.3456322539    0.7960700129    3.8713658180
N        0.8445985601    1.1062321252    4.5096861246
N       -0.2514555016    0.0568348904    2.6930814817
O        4.4566473754   -1.8662324601   -1.2429688796
O       -1.4431057906    1.1258153414    4.3086785534
O        4.9143596354   -3.0986542018    0.5949749476
H        1.9071965702   -1.1991724607   -1.1319856934
H        3.8522549135   -2.0405578898    2.6033835460
H       -0.0003550037   -0.1774740805    0.0894573507
H        1.9585341742   -1.0342991799    3.8323964141
H        0.7126344584    1.8164698509    5.2205019921
H        1.6715034999    1.2324227154    3.9363885636
H       -1.1413524173    0.0187680455    2.2103989625
H        5.6692752249   -3.3252769402    0.0189026734
21   
Generated by ForceBalance from scan.xyz: Frame 3 of 24
C        1.8980501903   -1.1733603232   -0.0439418685
C        3.0269185761   -1.6161519138    2.0483812479
C        0.8333167287   -0.6094691638    0.6491032034
C        1.9662854478   -1.0453609213    2.7504550637
C        2.9967536614   -1.7012104224    0.6503301056
C        0.8584775816   -0.5285189790    2.0546759194
C        4.1781079493   -2.1731178237   -0.1175926123
C       -0.3360123558    0.7926551385    3.8762125713
N        0.8608559412    1.1310394984    4.4878458256
N       -0.2518981688    0.0298213518    2.7130194158
O        4.6115678845   -1.6459793035   -1.1261664715
O       -1.4299917050    1.1174354320    4.3262554638
O        4.8015961707   -3.2298357354    0.4752095398
H        1.8929646353   -1.1972378160   -1.1295444411
H        3.8736549478   -2.0223135496    2.5930569214
H       -0.0161949964   -0.2029210753    0.1056301640
H        1.9820690143   -1.0268267086    3.8343148395
H        0.7318026146    1.8554132141    5.1847530483
H        1.6765566005    1.2544060668    3.8981066347
H       -1.1490292939   -0.0327160664    2.2467285193
H        5.5964123093   -3.4105160464   -0.0628884372
21   
Generated by ForceBalance from scan.xyz: Frame 4 of 24
C        1.9135586378   -1.1806623731   -0.0255344360
C        3.0610648227   -1.5963324359    2.0605402377
C        0.8428807828   -0.6316592858    0.6726994599
C        1.9945503736   -1.0415672461    2.7675770936
C        3.0228927985   -1.6887530772    0.6640052881
C        0.8744027401   -0.5463592290    2.0769599280
C        4.2234237148   -2.1371170392   -0.0972507097
C       -0.3239003568    0.7800947043    3.8899716443
N        0.8757380072    1.1519223257    4.4769052870
N       -0.2420142325   -0.0064109211    2.7432591720
O        4.8005466698   -1.4789783555   -0.9420599669
O       -1.4168365977    1.0956070924    4.3496286668
O        4.6818367162   -3.3483181323    0.3219216952
H        1.8975028996   -1.2068844375   -1.1112205815
H        3.9171350829   -1.9861557583    2.6034969010
H       -0.0160065247   -0.2409339812    0.1324178710
H        2.0171772201   -1.0177491851    3.8513277319
H        0.7441281841    1.8896787795    5.1590849740
H        1.6808622332    1.2755146251    3.8728327866
H       -1.1436899985   -0.0963027738    2.2905967687
H        5.5043133494   -3.5164220863   -0.1784032412
21   
Generated by ForceBalance from scan.xyz: Frame 5 of 24
C        1.9317542037   -1.1707560685   -0.0003886646
C        3.0891720114   -1.5374125246    2.0882490673
C        0.8463163586   -0.6426820110    0.6942815787
C        2.0036636323   -1.0138748422    2.7909159953
C        3.0568118324   -1.6331199531    0.6927345774
C        0.8724789330   -0.5505855540    2.0968743561
C        4.2694746129   -2.0830042988   -0.0586325311
C       -0.3536016278    0.7814346546    3.8844640018
N        0.8402107091    1.1976191410    4.4539337928
N       -0.2589458221   -0.0385718703    2.7633250558
O        5.0021167139   -1.3562223516   -0.7004006852
O       -1.4511403961    1.0849264855    4.3419495306
O        4.5191757023   -3.4086995723    0.1090543414
H        1.9094159227   -1.2109126070   -1.0857596059
H        3.9552559621   -1.8976064595    2.6365529795
H       -0.0219090814   -0.2792714631    0.1499730905
H        2.0216872686   -0.9874301953    3.8748329540
H        0.6955320451    1.9538774748    5.1127079705
H        1.6406402039    1.3181349746    3.8430528959
H       -1.1604964113   -0.1668250231    2.3199225198
H        5.3503918841   -3.5949810737   -0.3711332988
21   
Generated by ForceBalance from scan.xyz: Frame 6 of 24
C        1.9860925534   -1.1971294882    0.0234369847
C        3.1309645111   -1.4771475195    2.1326566486
C        0.8787689637   -0.6818138828    0.6941306627
C        2.0165582047   -0.9837896957    2.8117971875
C        3.1243665735   -1.5861848266    0.7384670644
C        0.8834029296   -0.5633483561    2.0944271770
C        4.3396071869   -2.0782191100    0.0132412204
C       -0.4014256393    0.7756747323    3.8334822747
N        0.7739725075    1.2341364604    4.4087677156
N       -0.2713519324   -0.0733222730    2.7379931570
O        5.2393241460   -1.3741674104   -0.3992986282
O       -1.5124389157    1.0669672500    4.2659990895
O        4.3366223428   -3.4280719432   -0.1398924803
H        1.9681380012   -1.2786777012   -1.0598423950
H        4.0020606305   -1.7955962102    2.6988275025
H        0.0061220858   -0.3587066194    0.1317816627
H        2.0145942119   -0.9471334408    3.8956244876
H        0.6029184500    2.0054238549    5.0432986121
H        1.5818485598    1.3537781783    3.8076115891
H       -1.1630212947   -0.2344631995    2.2854967248
H        5.1604374498   -3.6534198519   -0.6166113493
21   
Generated by ForceBalance from scan.xyz: Frame 7 of 24
C        2.0046437316   -1.2397658929    0.0540283790
C        3.1672645663   -1.4326094431    2.1634816640
C        0.8940365033   -0.7206999361    0.7153352349
C        2.0436449550   -0.9520247456    2.8358900924
C        3.1624158709   -1.5650401096    0.7710807033
C        0.9014789545   -0.5664881696    2.1126909433
C        4.3620197908   -2.1099386408    0.0632019057
C       -0.4046845441    0.7749540990    3.8347520138
N        0.7620076197    1.2575174688    4.4072644084
N       -0.2597549232   -0.0825836643    2.7473810375
O        5.3987332826   -1.5059698274   -0.1301733403
O       -1.5210289295    1.0523688441    4.2623906210
O        4.1494402933   -3.3669363837   -0.4095167609
H        1.9763555802   -1.3712013574   -1.0239421065
H        4.0488969385   -1.7176623184    2.7308931945
H        0.0118112888   -0.4314872851    0.1494561216
H        2.0406309480   -0.8997295694    3.9190145238
H        0.5780970271    2.0317756630    5.0345381451
H        1.5700015144    1.3827817240    3.8074522645
H       -1.1487557252   -0.2631213674    2.2968590070
H        4.9636711052   -3.6210025271   -0.8877868541
21   
Generated by ForceBalance from scan.xyz: Frame 8 of 24
C        2.0109029377   -1.3042434010    0.0530969375
C        3.1775614670   -1.4049151024    2.1680166632
C        0.8967491704   -0.7738105952    0.6966904876
C        2.0481807639   -0.9194099584    2.8252635832
C        3.1776242645   -1.5797312274    0.7790929564
C        0.9015047730   -0.5708382479    2.0889084166
C        4.3745372875   -2.1621040522    0.1089788278
C       -0.4348777327    0.7770306108    3.7864425670
N        0.7184973215    1.2712355358    4.3743465192
N       -0.2666133535   -0.0817454849    2.7020904661
O        5.4951478079   -1.6890366156    0.1321143510
O       -1.5602111737    1.0455598442    4.1950776132
O        4.0656754478   -3.2660069149   -0.6256911906
H        1.9826772028   -1.4834632946   -1.0175483043
H        4.0648035758   -1.6604588139    2.7404044949
H        0.0098773110   -0.5170460777    0.1223956979
H        2.0421029173   -0.8397337672    3.9065476534
H        0.5180916362    2.0427389246    5.0000363762
H        1.5333746342    1.4053393806    3.7858789935
H       -1.1476114858   -0.2627374706    2.2360621843
H        4.8928191892   -3.5340102205   -1.0720672992
21   
Generated by ForceBalance from scan.xyz: Frame 9 of 24
C        2.0106118851   -1.3599182296    0.0708410573
C        3.1845037295   -1.3987543021    2.1846370650
C        0.8952561028   -0.8190336277    0.7019446861
C        2.0559541941   -0.9017425164    2.8322209114
C        3.1824544439   -1.6106578923    0.7996563354
C        0.9054513010   -0.5777857863    2.0887025350
C        4.3852483697   -2.2005778925    0.1578685806
C       -0.4324379939    0.7959249761    3.7648077845
N        0.7167825499    1.2989882183    4.3523838956
N       -0.2613545353   -0.0745982881    2.6891686517
O        5.5355287280   -1.8686859734    0.3817021224
O       -1.5598079991    1.0675940019    4.1648977440
O        4.0691473728   -3.1235488733   -0.7937095766
H        1.9830081289   -1.5667526640   -0.9943170212
H        4.0767815448   -1.6366194429    2.7563346329
H        0.0051119609   -0.5814911948    0.1243072916
H        2.0515679729   -0.7954456529    3.9111426455
H        0.5122198829    2.0755774584    4.9704413058
H        1.5343284969    1.4289406854    3.7667494937
H       -1.1411583469   -0.2580146876    2.2216077516
H        4.9170221312   -3.3969409842   -1.1943306869
21   
Generated by ForceBalance from scan.xyz: Frame 10 of 24
C        1.9931806783   -1.4004307189    0.0819876204
C        3.1858137548   -1.3902249002    2.1862635858
C        0.8815820739   -0.8508987880    0.7111012421
C        2.0637723397   -0.8770410261    2.8307237215
C        3.1707536155   -1.6404985379    0.8068271812
C        0.9031056181   -0.5759048637    2.0919129724
C        4.3736546732   -2.2367832461    0.1782225590
C       -0.4346498797    0.8154979315    3.7577880399
N        0.7138574235    1.3302167152    4.3356248071
N       -0.2602466345   -0.0636793980    2.6890031622
O        5.5183507271   -2.0762450152    0.5650664350
O       -1.5626153201    1.0841969144    4.1579285199
O        4.0840023184   -2.9582809800   -0.9422146083
H        1.9596178916   -1.6251413186   -0.9789449162
H        4.0848708566   -1.6158034613    2.7518562186
H       -0.0144987248   -0.6289388186    0.1364417806
H        2.0702383852   -0.7431136354    3.9064637048
H        0.5073079561    2.1101417495    4.9488255631
H        1.5281594203    1.4603505948    3.7455732589
H       -1.1408486937   -0.2539713626    2.2256095309
H        4.9438923370   -3.2541737975   -1.2975472481
21   
Generated by ForceBalance from scan.xyz: Frame 11 of 24
C        1.9742476301   -1.4426597579    0.0998382794
C        3.1834022370   -1.4027880067    2.1960575196
C        0.8658192087   -0.8903261047    0.7315693481
C        2.0685116331   -0.8779028120    2.8420900307
C        3.1547592989   -1.6807342359    0.8215962467
C        0.9005158259   -0.5930010750    2.1075954133
C        4.3630534428   -2.2621619506    0.1924441644
C       -0.4239540536    0.8265097292    3.7604981300
N        0.7278749782    1.3504395265    4.3228470400
N       -0.2575848054   -0.0717580893    2.7059192681
O        5.4727397020   -2.2879246418    0.6974506134
O       -1.5493272623    1.1031754771    4.1622365922
O        4.1290731596   -2.7597685630   -1.0557725582
H        1.9356235353   -1.6738111667   -0.9592824134
H        4.0880924968   -1.6217987668    2.7548442747
H       -0.0357004448   -0.6777706477    0.1618405197
H        2.0855272772   -0.7220968363    3.9147716144
H        0.5254420476    2.1406399293    4.9241374081
H        1.5393999123    1.4693721736    3.7267066171
H       -1.1414731967   -0.2675176323    2.2510396079
H        4.9913227784   -3.0853146180   -1.3770880124
21   
Generated by ForceBalance from scan.xyz: Frame 12 of 24
C        2.1977458694   -0.9505831880   -0.0039370345
C        2.7888974338   -1.8637063808    2.1578657519
C        1.1305513697   -0.2754125827    0.5770991421
C        1.7125924111   -1.2051274429    2.7439223895
C        3.0470278206   -1.7436244141    0.7844023850
C        0.8787215494   -0.3849341926    1.9584494371
C        4.2056917608   -2.4707053992    0.2169757465
C       -0.4521678662    0.8599419837    3.7426203560
N        0.6043600974    0.8284403680    4.6373554999
N       -0.2311743010    0.2921812070    2.4875970466
O        4.9686228473   -3.1779225457    0.8534338263
O       -1.5468716693    1.3397156752    4.0178605699
O        4.3552970574   -2.2785889700   -1.1253239741
H        2.3851450985   -0.8551950438   -1.0679847198
H        3.4336118443   -2.5005312543    2.7556428240
H        0.4876740554    0.3537101514   -0.0339580078
H        1.4938165844   -1.3518636423    3.7954204305
H        0.4421140959    1.4385662298    5.4301004821
H        1.5466006460    0.8618045386    4.2642337550
H       -0.9886875040    0.5079794024    1.8503432380
H        5.1386839306   -2.8013878367   -1.3813155757
21   
Generated by ForceBalance from scan.xyz: Frame 13 of 24
C        2.1778521586   -0.9807566066   -0.0005955411
C        2.7891003414   -1.8703938339    2.1652451622
C        1.1124707516   -0.3034638004    0.5816521969
C        1.7211465732   -1.2007974151    2.7548512810
C        3.0277220784   -1.7737760252    0.7866849636
C        0.8756782737   -0.3953737595    1.9668413535
C        4.1904226072   -2.4937339281    0.2167757599
C       -0.4411289112    0.8697965718    3.7475193444
N        0.6264133267    0.8597850669    4.6299319933
N       -0.2312251972    0.2855724848    2.4984133133
O        4.8176312022   -3.3725611859    0.7833775967
O       -1.5360206356    1.3452460405    4.0294883666
O        4.4927424010   -2.0992559172   -1.0537194308
H        2.3597998115   -0.8911389946   -1.0662024834
H        3.4381840235   -2.5011276580    2.7648920495
H        0.4622821955    0.3166808215   -0.0308820024
H        1.5183872621   -1.3278531938    3.8120951153
H        0.4683897712    1.4803566975    5.4154138253
H        1.5634736399    0.8969250689    4.2443212849
H       -0.9980974829    0.4858265714    1.8673410489
H        5.2432411829   -2.6575555913   -1.3326195280
21   
Generated by ForceBalance from scan.xyz: Frame 14 of 24
C        2.1438720736   -1.0233973770   -0.0088566661
C        2.7732765944   -1.8958844911    2.1582041606
C        1.0844691866   -0.3400791551    0.5780244928
C        1.7164404222   -1.2125957179    2.7536491920
C        2.9910287018   -1.8209471593    0.7754475037
C        0.8627005517   -0.4161324206    1.9664429520
C        4.1537900965   -2.5369749335    0.1971236343
C       -0.4278398109    0.8776432243    3.7454726465
N        0.6563538385    0.8856772636    4.6078540356
N       -0.2376976087    0.2726531469    2.5036612304
O        4.6382463218   -3.5617342269    0.6446499779
O       -1.5189786597    1.3543875097    4.0399714635
O        4.6138659520   -1.9606774945   -0.9503917688
H        2.3193387106   -0.9383377624   -1.0762343722
H        3.4244739682   -2.5232818594    2.7594184595
H        0.4298515619    0.2760550406   -0.0337811674
H        1.5301795482   -1.3216253414    3.8159409779
H        0.5109335224    1.5194501088    5.3851770379
H        1.5855509573    0.9201991094    4.2033739020
H       -1.0161717508    0.4580647924    1.8824642608
H        5.3339250283   -2.5385490075   -1.2679971366
21   
Generated by ForceBalance from scan.xyz: Frame 15 of 24
C        2.1127679121   -1.0470048097   -0.0216603259
C        2.7652398510   -1.9072542505    2.1427253047
C        1.0551671268   -0.3648930902    0.5711780007
C        1.7124518511   -1.2211588760    2.7444576521
C        2.9649601622   -1.8425115719    0.7577221697
C        0.8477219215   -0.4336823007    1.9616156830
C        4.1301554271   -2.5461180484    0.1609916986
C       -0.4144360326    0.8869809705    3.7395588871
N        0.6897430922    0.9176377181    4.5764374798
N       -0.2496480129    0.2551739279    2.5083657992
O        4.4829802389   -3.6793090376    0.4328923558
O       -1.5004524693    1.3658766515    4.0496938314
O        4.7424753944   -1.8092500140   -0.8089705915
H        2.2812809304   -0.9608376540   -1.0904904377
H        3.4220404631   -2.5280393565    2.7451972510
H        0.3938377015    0.2467752592   -0.0378511841
H        1.5400940285   -1.3199633922    3.8101741128
H        0.5604522074    1.5699814375    5.3411264393
H        1.6089235994    0.9456014840    4.1491546806
H       -1.0440267497    0.4189923154    1.9015219248
H        5.4429735752   -2.3815899392   -1.1776742270
21   
Generated by ForceBalance from scan.xyz: Frame 16 of 24
C        2.0931359270   -1.0756366298   -0.0274583331
C        2.7684607556   -1.9123553845    2.1367014765
C        1.0352344685   -0.3951074141    0.5686716915
C        1.7139617730   -1.2299573432    2.7421373644
C        2.9567121449   -1.8575787969    0.7510084482
C        0.8384738867   -0.4552135762    1.9603521829
C        4.1194206536   -2.5583739888    0.1342724142
C       -0.3996818847    0.8940469704    3.7294346092
N        0.7227200269    0.9531269789    4.5409935853
N       -0.2604878916    0.2291895591    2.5134938154
O        4.3402927886   -3.7527689654    0.1959177616
O       -1.4809398294    1.3756732153    4.0524105150
O        4.8964324363   -1.7126397460   -0.5977196458
H        2.2509859970   -0.9951704990   -1.0989028068
H        3.4324506765   -2.5216012092    2.7434224548
H        0.3660008111    0.2078915660   -0.0403064119
H        1.5512788988   -1.3207231264    3.8102173519
H        0.6075488969    1.6275551436    5.2885431157
H        1.6319709564    0.9721110715    4.0924725795
H       -1.0699588569    0.3679591999    1.9206272624
H        5.5881196718   -2.2680529818   -1.0081466176
21   
Generated by ForceBalance from scan.xyz: Frame 17 of 24
C        2.0455108701   -1.0938764772   -0.0386624336
C        2.7608493647   -1.9049113776    2.1223166253
C        0.9913077980   -0.4140860085    0.5670774664
C        1.7026510168   -1.2322805837    2.7339643156
C        2.9319858997   -1.8522403640    0.7352814401
C        0.8119223461   -0.4681088841    1.9603031388
C        4.0782078091   -2.5653819433    0.0903261958
C       -0.3935112363    0.9178987823    3.7212762663
N        0.7512206270    1.0031276278    4.4991108186
N       -0.2863863325    0.2087071654    2.5282235630
O        4.1545909318   -3.7658731183   -0.0799504319
O       -1.4657294674    1.4111183904    4.0576893784
O        5.0327083198   -1.7021327144   -0.3505769314
H        2.1814417303   -1.0265074243   -1.1143743706
H        3.4380256197   -2.5001554646    2.7286980731
H        0.3093772052    0.1785614281   -0.0378288317
H        1.5508651089   -1.3201357187    3.8040710774
H        0.6588680802    1.7058589989    5.2232743769
H        1.6481142839    0.9999485863    4.0260248290
H       -1.1127778118    0.3225506274    1.9538097931
H        5.7147836161   -2.2493625878   -0.7883188134
21   
Generated by ForceBalance from scan.xyz: Frame 18 of 24
C        2.0026973181   -1.0953372280   -0.0635100825
C        2.7917933549   -1.8514258442    2.0906599184
C        0.9512378541   -0.4250037661    0.5582372206
C        1.7261259647   -1.2043445361    2.7169934028
C        2.9379411995   -1.8021052196    0.7007157783
C        0.8034031732   -0.4670711310    1.9551310475
C        4.0497371181   -2.5498583878    0.0301262900
C       -0.3964627263    0.9071147266    3.7280602784
N        0.7624066879    1.0257281054    4.4804797347
N       -0.2993210536    0.1880454706    2.5404504145
O        3.9808860415   -3.6931409200   -0.3731951841
O       -1.4720339710    1.3796790693    4.0831553283
O        5.1787223197   -1.8010212693   -0.0809531165
H        2.0991343652   -1.0578333322   -1.1450508989
H        3.4970762377   -2.4193666682    2.6912876510
H        0.2406439393    0.1412694412   -0.0388588006
H        1.5938794941   -1.2920785372    3.7897476742
H        0.6698814230    1.7343746012    5.1988286750
H        1.6489142196    1.0370584041    3.9882963293
H       -1.1409408658    0.2751645733    1.9837638519
H        5.8423974649   -2.3676940475   -0.5227023554
21   
Generated by ForceBalance from scan.xyz: Frame 19 of 24
C        1.9656992837   -1.0906306643   -0.0940452835
C        2.8417136324   -1.7812695155    2.0491115915
C        0.9134193096   -0.4409821069    0.5459978170
C        1.7668389963   -1.1691169904    2.6938680504
C        2.9582873408   -1.7338040161    0.6554020449
C        0.8030856140   -0.4689362735    1.9473741435
C        4.0339216157   -2.5090256088   -0.0362432692
C       -0.4014350904    0.8748993304    3.7409270425
N        0.7661033968    1.0287446101    4.4727638684
N       -0.3048607007    0.1572683458    2.5518154061
O        3.8611058856   -3.5364092815   -0.6613361247
O       -1.4840184224    1.3164336970    4.1137756686
O        5.2685610006   -1.9766103895    0.1693829589
H        2.0238902378   -1.0852509609   -1.1787734123
H        3.5833024865   -2.3142311841    2.6376854500
H        0.1667822180    0.0902007491   -0.0392511907
H        1.6585518028   -1.2571638462    3.7692514690
H        0.6653410367    1.7350675108    5.1923121460
H        1.6435872170    1.0646354474    3.9658259551
H       -1.1581928774    0.2215455550    2.0099093497
H        5.9027983785   -2.5762509267   -0.2714998003
21   
Generated by ForceBalance from scan.xyz: Frame 20 of 24
C        1.9413655926   -1.0832691190   -0.1082092563
C        2.8935874513   -1.7125111084    2.0223814536
C        0.8895870614   -0.4526149520    0.5480408054
C        1.8166554862   -1.1248760152    2.6852345382
C        2.9776883031   -1.6779908342    0.6249748225
C        0.8155980783   -0.4616070450    1.9533996121
C        4.0323858541   -2.4516819571   -0.0884479350
C       -0.3967155724    0.8477250490    3.7703515962
N        0.7740584035    1.0254391694    4.4906685192
N       -0.2935915272    0.1433052010    2.5729254091
O        3.8216472152   -3.3258069375   -0.9075588860
O       -1.4865019348    1.2583977441    4.1565570202
O        5.2860218519   -2.1463937449    0.3476209169
H        1.9713032364   -1.1037796544   -1.1936744916
H        3.6658829810   -2.2153772269    2.5970672523
H        0.1118868935    0.0463592919   -0.0250535517
H        1.7342082121   -1.2067638910    3.7632625718
H        0.6624171856    1.7215158700    5.2186103907
H        1.6447484536    1.0898055874    3.9748813166
H       -1.1537353761    0.1942934581    2.0402758437
H        5.8917362244   -2.7552041151   -0.1187633687
21   
Generated by ForceBalance from scan.xyz: Frame 21 of 24
C        1.9183389529   -1.0864942200   -0.0910376002
C        2.9349745115   -1.6628391314    2.0255350681
C        0.8703490908   -0.4674050628    0.5793433765
C        1.8640831442   -1.0848878238    2.7054132320
C        2.9842603004   -1.6515561887    0.6253505117
C        0.8319241730   -0.4537222178    1.9873016964
C        4.0349678357   -2.3979650357   -0.1129596782
C       -0.3799946058    0.8235114970    3.8299342805
N        0.7920223169    1.0163152742    4.5436826618
N       -0.2732316114    0.1416027380    2.6189194154
O        3.8411748626   -3.0966819485   -1.0911724357
O       -1.4751173002    1.2049084589    4.2299811597
O        5.2611565073   -2.2939927039    0.4735341443
H        1.9271992280   -1.1256476928   -1.1761185630
H        3.7305355726   -2.1428118622    2.5869914735
H        0.0686072530    0.0064168956    0.0179910231
H        1.8087056337   -1.1533636081    3.7859177557
H        0.6697508592    1.6959548270    5.2854232257
H        1.6560804510    1.1123540098    4.0216747083
H       -1.1388392499    0.1866084164    2.0944530538
H        5.8548173866   -2.8758329068   -0.0393102257
21   
Generated by ForceBalance from scan.xyz: Frame 22 of 24
C        1.9000573481   -1.1003114071   -0.0897030846
C        2.9485511719   -1.6470343342    2.0208622605
C        0.8519505432   -0.4910346415    0.5880456023
C        1.8820447927   -1.0715985065    2.7086037883
C        2.9780617486   -1.6533772244    0.6192957955
C        0.8321581486   -0.4617895000    1.9966875607
C        4.0424973788   -2.3557943438   -0.1367474650
C       -0.3743979187    0.8145213089    3.8444572522
N        0.8018044448    1.0264850666    4.5452471524
N       -0.2707276993    0.1288218064    2.6346364486
O        3.9064356531   -2.8535889146   -1.2407730808
O       -1.4705290974    1.1833372623    4.2529799965
O        5.2118261299   -2.4501551068    0.5590225352
H        1.9036689705   -1.1446548099   -1.1744328962
H        3.7560513180   -2.1135129351    2.5757963477
H        0.0375580942   -0.0317898479    0.0327822982
H        1.8427382872   -1.1260032786    3.7905564366
H        0.6778349427    1.7071135612    5.2858265697
H        1.6592373940    1.1320469086    4.0142454919
H       -1.1414892889    0.1632478924    2.1178440213
H        5.8137199503   -2.9760988247   -0.0015948813
21   
Generated by ForceBalance from scan.xyz: Frame 23 of 24
C        1.8851935811   -1.1209187343   -0.0874159287
C        2.9589886855   -1.6393613471    2.0188889119
C        0.8374494106   -0.5169445498    0.5947431998
C        1.8980537464   -1.0598757278    2.7110852580
C        2.9697220725   -1.6680948591    0.6167895762
C        0.8331533136   -0.4707939229    2.0032720890
C        4.0504673824   -2.3275040175   -0.1519681883
C       -0.3704810352    0.8090530266    3.8516912447
N        0.8088418956    1.0414420640    4.5403791526
N       -0.2682754772    0.1172611993    2.6449024771
O        3.9946784791   -2.6138910909   -1.3359256725
O       -1.4678156471    1.1661507522    4.2670729643
O        5.1434424277   -2.6231242876    0.6088227794
H        1.8864679716   -1.1675374076   -1.1719234436
H        3.7757658442   -2.0930842793    2.5702709567
H        0.0137867013   -0.0697971657    0.0432781430
H        1.8741066509   -1.0957060961    3.7942081019
H        0.6821021361    1.7245231723    5.2782481730
H        1.6597490023    1.1560875996    4.0008360303
H       -1.1435185028    0.1390174650    2.1349857154
H        5.7667721130   -3.0784715233    0.0114647626
21   
Generated by ForceBalance from scan.xyz: Frame 24 of 24
C        1.8893065829   -1.1451806107   -0.0713279160
C        2.9778131360   -1.6356109374    2.0337088683
C        0.8380898788   -0.5473017568    0.6108686412
C        1.9191440904   -1.0525181143    2.7261416454
C        2.9772402436   -1.6869308880    0.6320321810
C        0.8423456473   -0.4847631479    2.0187844312
C        4.0813806644   -2.3016545942   -0.1401851363
C       -0.3631581252    0.8022087254    3.8613497198
N        0.8180850938    1.0584813041    4.5382246085
N       -0.2608437155    0.0996029808    2.6607716857
O        4.1318423852   -2.3732518666   -1.3566521121
O       -1.4620901584    1.1480487395    4.2819024882
O        5.0765730608   -2.7985160777    0.6495032083
H        1.8917599480   -1.1907867409   -1.1558344731
H        3.8020048741   -2.0752173852    2.5852278377
H        0.0076562810   -0.1124987015    0.0596485086
H        1.9066637102   -1.0687392521    3.8098977078
H        0.6871342707    1.7469388454    5.2703623826
H        1.6625996682    1.1808580363    3.9903947172
H       -1.1400494989    0.1045276502    2.1572553886
H        5.7369271494   -3.1744278660    0.0369833127
