23   
Generated by ForceBalance from scan.xyz: Frame 1 of 24
C       -3.4352950981   -3.2051086754   -5.2971714261
C       -4.6430197206   -5.2723179297   -5.2399464369
C       -3.7135702532   -4.4960637857   -3.2739418181
C       -4.1756239025   -4.1717892372   -5.9850187099
C       -3.1999795479   -3.3578332957   -3.9241723538
C       -1.8638843007   -2.3850605678   -2.0239029274
C       -0.8732665653   -0.8880825847   -0.2274089791
C       -0.9836249470   -1.1714067128   -1.7268958326
N       -4.4171383802   -5.4237642913   -3.9360475619
N       -4.3837063321   -4.0924784533   -7.3698757179
N       -2.4642549433   -2.3463958745   -3.2694906828
O       -2.0023449021   -3.3091784551   -1.2319699727
H       -3.0364511123   -2.3426835285   -5.8307220052
H       -5.2215087143   -6.0550716162   -5.7324282241
H       -3.5451063584   -4.6519205677   -2.2167083398
H       -1.8457741492   -0.6140733741    0.1925920218
H       -0.1749032592   -0.0657174492   -0.0442785786
H       -0.5202878742   -1.7747073662    0.3034178255
H        0.0100699420   -1.3892077796   -2.1403418068
H       -1.3556977202   -0.2889703832   -2.2615480630
H       -4.4301573039   -3.1476350789   -7.7345157874
H       -5.1693006619   -4.6439068699   -7.6971748834
H       -2.2323764400   -1.5454813150   -3.8436998412
23   
Generated by ForceBalance from scan.xyz: Frame 2 of 24
C       -3.4316306426   -3.2091447242   -5.2816427958
C       -4.6503112240   -5.2723827222   -5.2172236136
C       -3.8516499477   -4.4136208084   -3.2302983102
C       -4.1302286282   -4.2044776965   -5.9742189323
C       -3.2949211408   -3.3039818576   -3.8916170567
C       -1.8723356383   -2.3728180473   -2.0473906656
C       -0.7675665341   -0.9749304578   -0.2367769360
C       -1.0349440509   -1.1335701498   -1.7348258304
N       -4.5114608520   -5.3699848689   -3.8953145222
N       -4.2433283425   -4.1847771670   -7.3721429926
N       -2.6116681982   -2.2678095181   -3.2146278340
O       -1.8761163593   -3.3670055048   -1.3333113211
H       -2.9891030373   -2.3732927296   -5.8226801552
H       -5.1988332947   -6.0738223470   -5.7140035404
H       -3.7494478506   -4.5271863996   -2.1585723884
H       -1.6989794386   -0.8054195439    0.3117842991
H       -0.1014305624   -0.1259044113   -0.0551379891
H       -0.3046975183   -1.8781934902    0.1661945828
H       -0.0850957627   -1.2459600420   -2.2744511551
H       -1.5183182786   -0.2362369215   -2.1398037502
H       -4.2662485171   -3.2564156505   -7.7788675352
H       -5.0033774781   -4.7534762063   -7.7288660450
H       -2.4482123657   -1.4314069730   -3.7615229236
23   
Generated by ForceBalance from scan.xyz: Frame 3 of 24
C       -3.4159547477   -3.2042418146   -5.2558836977
C       -4.6477639405   -5.2600803835   -5.1882012450
C       -3.9831701017   -4.3209774259   -3.1923555202
C       -4.0734376330   -4.2264154857   -5.9526439150
C       -3.3811947563   -3.2409959143   -3.8587973933
C       -1.8678836881   -2.3475554813   -2.0896719026
C       -0.6620499950   -1.0479379921   -0.2705119592
C       -1.0845760433   -1.0836639168   -1.7405645856
N       -4.5990186901   -5.3056293308   -3.8559537866
N       -4.0900614956   -4.2658721558   -7.3546612177
N       -2.7434393303   -2.1888859648   -3.1552466815
O       -1.7312684116   -3.4027834422   -1.4862553012
H       -2.9273020853   -2.3954784066   -5.7977691268
H       -5.1658795431   -6.0799901854   -5.6874572439
H       -3.9531034023   -4.3877590288   -2.1109377958
H       -1.5355175735   -1.0035995901    0.3869398370
H       -0.0375056474   -0.1712489375   -0.0730995318
H       -0.0983790421   -1.9471828566   -0.0132488140
H       -0.1958247164   -1.0709695373   -2.3856658616
H       -1.6697704293   -0.1928859479   -1.9988123016
H       -4.0817490880   -3.3556841809   -7.8009726979
H       -4.8241568436   -4.8500291909   -7.7395862079
H       -2.6649054735   -1.3139827608   -3.6594560099
23   
Generated by ForceBalance from scan.xyz: Frame 4 of 24
C       -3.3816197066   -3.2006189578   -5.2148606584
C       -4.6325610611   -5.2469931484   -5.1745433401
C       -4.1117668333   -4.2498510681   -3.1690820724
C       -3.9960354688   -4.2409300276   -5.9264363659
C       -3.4576966475   -3.1946754269   -3.8207063279
C       -1.8570959334   -2.3367604768   -2.1347526499
C       -0.5660293890   -1.1369967561   -0.3054487698
C       -1.1285496518   -1.0585060167   -1.7262659744
N       -4.6829171422   -5.2546908851   -3.8409357328
N       -3.9088307135   -4.3254379488   -7.3236046398
N       -2.8584596449   -2.1405224732   -3.0780266124
O       -1.5851452955   -3.4359963582   -1.6735362910
H       -2.8426896094   -2.4138481987   -5.7405236003
H       -5.1178396115   -6.0793994281   -5.6860301012
H       -4.1606469392   -4.2785858767   -2.0850913200
H       -1.3714353807   -1.2226359201    0.4302079944
H        0.0173957043   -0.2403803985   -0.0744252260
H        0.0767296649   -2.0132424345   -0.1974668003
H       -0.3100216951   -0.9158163756   -2.4445189537
H       -1.7937413337   -0.1936275259   -1.8351135134
H       -3.8566978836   -3.4306383881   -7.7970576507
H       -4.6159992339   -4.9174948609   -7.7450007682
H       -2.8804212895   -1.2263055933   -3.5139200739
23   
Generated by ForceBalance from scan.xyz: Frame 5 of 24
C       -3.3548005188   -3.2201402973   -5.1720963833
C       -4.6921096135   -5.2117794353   -5.1600972155
C       -4.2918908999   -4.1576922477   -3.1589510898
C       -3.9531919866   -4.2634124194   -5.8940610048
C       -3.5441448914   -3.1577916577   -3.7914881321
C       -1.8491136106   -2.3043979642   -2.2123023063
C       -0.4702099920   -1.2012590267   -0.3860282026
C       -1.2033311251   -1.0125582974   -1.7156294902
N       -4.8515933058   -5.1662115276   -3.8357501792
N       -3.7571764859   -4.4090377864   -7.2741626643
N       -2.9584506077   -2.1081978760   -3.0218587337
O       -1.4282210735   -3.4163394276   -1.9250521876
H       -2.7406057515   -2.4758385855   -5.6756157232
H       -5.1685991901   -6.0443147284   -5.6797792666
H       -4.4281954384   -4.1367614982   -2.0809142349
H       -1.1696860673   -1.4673297198    0.4121533800
H        0.0457496430   -0.2797999998   -0.0987744749
H        0.2634326769   -2.0062984363   -0.4654819225
H       -0.4947745471   -0.6915076064   -2.4908708213
H       -1.9580780289   -0.2210928229   -1.6360132918
H       -3.6124440205   -3.5398379992   -7.7748980833
H       -4.4545761713   -4.9835129567   -7.7340674581
H       -3.1264303268   -1.1612155628   -3.3397512912
23   
Generated by ForceBalance from scan.xyz: Frame 6 of 24
C       -3.7876088466   -2.9685589574   -5.3826475347
C       -4.0662406776   -5.3470327426   -5.2260574087
C       -3.0625886355   -4.2517399601   -3.4788103918
C       -4.2346432567   -4.1612344104   -5.9697966636
C       -3.1870627130   -3.0179055963   -4.1272266018
C       -1.4714248671   -1.3115979982   -3.6770455729
C        0.0113271395    0.7018878154   -3.2236002788
C       -1.0535882531   -0.2449293152   -2.6671280381
N       -3.5030906836   -5.3947947399   -4.0177144165
N       -4.7743109420   -4.1907245503   -7.2603672686
N       -2.7514635269   -1.8113234247   -3.4894596344
O       -0.7448980573   -1.6944968226   -4.5841263951
H       -3.8850230138   -2.0150091237   -5.8954812312
H       -4.4051765564   -6.2968347648   -5.6419788994
H       -2.5923040983   -4.3126928901   -2.4986353031
H        0.8754757735    0.1374376970   -3.5804697174
H        0.3419602471    1.4034971303   -2.4514189190
H       -0.3794664025    1.2780668193   -4.0677440642
H       -1.9338414577    0.3133555896   -2.3266628377
H       -0.6618240364   -0.7738519345   -1.7880309952
H       -5.1950286179   -3.3212970423   -7.5667409445
H       -5.3789682835   -4.9823072639   -7.4476234505
H       -3.2026041388   -1.5798391213   -2.6121018641
23   
Generated by ForceBalance from scan.xyz: Frame 7 of 24
C       -3.6925763305   -2.9991543416   -5.3727151470
C       -4.1638807610   -5.3469072535   -5.1720552239
C       -3.2180914298   -4.2696432087   -3.3814267846
C       -4.1777560307   -4.1763387730   -5.9587111833
C       -3.1889100435   -3.0531875573   -4.0744280301
C       -1.5181889371   -1.2692809253   -3.7530938166
C       -0.0637054917    0.7604396312   -3.2790071057
C       -0.9901192453   -0.3064276573   -2.6930930654
N       -3.7063322549   -5.3929684971   -3.9202700968
N       -4.6164818962   -4.2098925001   -7.2865184763
N       -2.7313083127   -1.8667522442   -3.4255316184
O       -0.9379544213   -1.4911168133   -4.8066303109
H       -3.6815932989   -2.0596169562   -5.9180540064
H       -4.5416251052   -6.2819023159   -5.5877252973
H       -2.8359691197   -4.3345095772   -2.3631182329
H        0.7573042681    0.2945149993   -3.8281476678
H        0.3536135819    1.3842806708   -2.4825540374
H       -0.6038345347    1.4079062966   -3.9762868637
H       -1.8286818167    0.1542364420   -2.1573552337
H       -0.4456949308   -0.9118747530   -1.9559107686
H       -4.9236974133   -3.3180433711   -7.6566898953
H       -5.2789950005   -4.9479646609   -7.4950343812
H       -3.0083673873   -1.7775792097   -2.4543343192
23   
Generated by ForceBalance from scan.xyz: Frame 8 of 24
C       -3.5954020869   -3.0315870602   -5.3589014577
C       -4.2693318092   -5.3308731693   -5.1357672445
C       -3.3568766813   -4.2826856331   -3.3112053247
C       -4.1360529196   -4.1838244209   -5.9453887502
C       -3.1803196804   -3.0909264607   -4.0282093246
C       -1.5507461287   -1.2439753901   -3.7929907831
C       -0.1422382902    0.8184715147   -3.3210676494
C       -0.9275071073   -0.3506786974   -2.7242474405
N       -3.8987866642   -5.3771413528   -3.8554190321
N       -4.4896027726   -4.2182049976   -7.2984234506
N       -2.6761601528   -1.9400000249   -3.3638186792
O       -1.1107308176   -1.3346222989   -4.9311301594
H       -3.4710859792   -2.1153959533   -5.9271143633
H       -4.6938155478   -6.2438942044   -5.5547478863
H       -3.0502287435   -4.3504247289   -2.2673033021
H        0.6166561283    0.4544371783   -4.0169258104
H        0.3507575554    1.3915044607   -2.5297731361
H       -0.8033656704    1.4928444810   -3.8735852287
H       -1.7046476916    0.0090735228   -2.0393174301
H       -0.2588365206   -0.9864572346   -2.1283347754
H       -4.6915985078   -3.3139075248   -7.7087011839
H       -5.2005479551   -4.9013368804   -7.5329028906
H       -2.8288878583   -1.9318223829   -2.3616423212
23   
Generated by ForceBalance from scan.xyz: Frame 9 of 24
C       -3.4887481453   -3.0710972830   -5.3586123736
C       -4.3784061799   -5.2973862984   -5.1136922873
C       -3.4673263301   -4.2803601542   -3.2712290505
C       -4.1042361471   -4.1886484937   -5.9399155783
C       -3.1480693427   -3.1265627374   -4.0053002045
C       -1.5490876456   -1.2272835600   -3.8113208711
C       -0.2148250495    0.8787317519   -3.3184673689
C       -0.8587967230   -0.3837160113   -2.7427982165
N       -4.0743450551   -5.3381195551   -3.8152574929
N       -4.3934020189   -4.2282439193   -7.3080859686
N       -2.5771018062   -2.0231080136   -3.3257817275
O       -1.2278024498   -1.1994141252   -4.9929840343
H       -3.2515091690   -2.1910012652   -5.9452220224
H       -4.8614051311   -6.1813258611   -5.5313041810
H       -3.2218707643   -4.3449652416   -2.2106450404
H        0.4789254948    0.6223008329   -4.1219450290
H        0.3322229405    1.4180335378   -2.5391369126
H       -0.9721078541    1.5498965456   -3.7346824364
H       -1.5704519711   -0.1306100013   -1.9477779743
H       -0.0913070095   -1.0194893996   -2.2812371781
H       -4.4941106728   -3.3206394182   -7.7474967162
H       -5.1506349751   -4.8519877543   -7.5623552578
H       -2.6491869534   -2.0683371158   -2.3159647891
23   
Generated by ForceBalance from scan.xyz: Frame 10 of 24
C       -3.4124931946   -3.1302441425   -5.3726590120
C       -4.5028348912   -5.2629369815   -5.0944705731
C       -3.5800196576   -4.2633829972   -3.2487378320
C       -4.1034629296   -4.2103488729   -5.9415003576
C       -3.1335773173   -3.1639997453   -4.0036522415
C       -1.5550876185   -1.2267619397   -3.8395971690
C       -0.3063891173    0.9224628281   -3.3133164764
C       -0.8090302032   -0.4201537266   -2.7793172187
N       -4.2511554365   -5.2844257323   -3.7838037306
N       -4.3413090624   -4.2700871829   -7.3188734164
N       -2.4855271178   -2.1102752027   -3.3219475332
O       -1.3412663384   -1.1012678258   -5.0406304541
H       -3.0747246908   -2.2972821264   -5.9768673573
H       -5.0439499920   -6.1167431685   -5.5030377259
H       -3.3836830524   -4.3117306558   -2.1768260104
H        0.3128620686    0.7734472834   -4.2003889680
H        0.2867075694    1.4383750117   -2.5520638282
H       -1.1420745905    1.5699143325   -3.5956261298
H       -1.4451115884   -0.2746872610   -1.8979176738
H        0.0401123469   -1.0343259193   -2.4510808120
H       -4.3533283231   -3.3710477080   -7.7864844719
H       -5.1354335931   -4.8402417765   -7.5861256135
H       -2.5053830348   -2.1870364329   -2.3120683054
23   
Generated by ForceBalance from scan.xyz: Frame 11 of 24
C       -3.3319645627   -3.1832832304   -5.3822699987
C       -4.5951170786   -5.2174534987   -5.0768325163
C       -3.6541826130   -4.2320099238   -3.2327508551
C       -4.0910241109   -4.2239873253   -5.9386621167
C       -3.1026106306   -3.1911633903   -4.0031883861
C       -1.5506715888   -1.2187388755   -3.8522410120
C       -0.3748216255    0.9623513860   -3.2912677452
C       -0.7606648066   -0.4359149090   -2.8051773314
N       -4.3824634752   -5.2168997626   -3.7588169240
N       -4.2921517312   -4.3066125194   -7.3206494985
N       -2.3795551796   -2.1887670746   -3.3241219162
O       -1.4395940768   -1.0066446386   -5.0559440586
H       -2.9156100306   -2.3963863790   -5.9983176687
H       -5.1885763468   -6.0395797955   -5.4775077244
H       -3.4961699745   -4.2610188195   -2.1536939162
H        0.1755490192    0.9017623711   -4.2325337720
H        0.2517148089    1.4653359502   -2.5483928110
H       -1.2636224145    1.5765956525   -3.4644135970
H       -1.3268595052   -0.3781922713   -1.8677535635
H        0.1435261747   -1.0190407263   -2.5855676169
H       -4.2246068963   -3.4225646500   -7.8116251209
H       -5.1186143901   -4.8242179794   -7.5966891771
H       -2.3534267054   -2.2948264646   -2.3173366276
23   
Generated by ForceBalance from scan.xyz: Frame 12 of 24
C       -3.2523258796   -3.2375995875   -5.3929031861
C       -4.6778069328   -5.1578193625   -5.0584625072
C       -3.7146576273   -4.1838935049   -3.2198232674
C       -4.0774856995   -4.2342781034   -5.9358477894
C       -3.0674558415   -3.2125722566   -4.0073888397
C       -1.5375888993   -1.2195604175   -3.8686476898
C       -0.4481663461    0.9930003759   -3.2617613384
C       -0.7140102498   -0.4521922718   -2.8358694122
N       -4.4991625457   -5.1298291007   -3.7355052484
N       -4.2484620156   -4.3465789033   -7.3199617007
N       -2.2672350224   -2.2639632533   -3.3394764790
O       -1.5221620298   -0.9396887089   -5.0640128066
H       -2.7652793594   -2.5023869405   -6.0207081001
H       -5.3223180123   -5.9453318213   -5.4496488731
H       -3.5884545326   -4.1873538727   -2.1361323573
H        0.0282285502    1.0205950726   -4.2440037893
H        0.2058349355    1.4896751076   -2.5385885317
H       -1.3812567470    1.5606232333   -3.3282835705
H       -1.2058504627   -0.4832588459   -1.8561384670
H        0.2365075849   -0.9899209309   -2.7221875502
H       -4.1105762538   -3.4836911976   -7.8334936620
H       -5.1018842952   -4.8148974474   -7.6020977100
H       -2.2076819667   -2.3883184248   -2.3364441401
23   
Generated by ForceBalance from scan.xyz: Frame 13 of 24
C       -3.2474310506   -3.0159518802   -5.3551470263
C       -4.4034396864   -5.1200326321   -5.1034164055
C       -3.3761711785   -4.2155409672   -3.2639294930
C       -4.0075229384   -4.0478258102   -5.9262099152
C       -2.9317244440   -3.0985070853   -3.9960335056
C       -1.8274988363   -0.8586438332   -3.7185535924
C       -0.1165386822    0.9560305414   -3.2496013748
C       -1.1251791224   -0.0262512697   -2.6482755624
N       -4.0930559760   -5.1993610641   -3.8072062395
N       -4.3059197473   -4.0452973601   -7.2933557924
N       -2.1604457597   -2.1351358323   -3.3133233081
O       -2.0844175771   -0.4128006376   -4.8333107855
H       -2.9158403920   -2.1680619978   -5.9409183105
H       -4.9898798397   -5.9403062062   -5.5180303739
H       -3.1417233039   -4.3069773128   -2.2023965045
H        0.7037931490    0.4243033422   -3.7415780625
H        0.3076759593    1.5944594404   -2.4687068406
H       -0.6006010040    1.5885237413   -3.9967546998
H       -1.9085106332    0.5259297106   -2.1129154625
H       -0.6404492545   -0.6752564855   -1.9093930781
H       -4.3302425532   -3.1249238763   -7.7172779789
H       -5.1211201385   -4.5918371285   -7.5464928703
H       -1.9320819759   -2.3738813650   -2.3563207585
23   
Generated by ForceBalance from scan.xyz: Frame 14 of 24
C       -3.1566405443   -3.0704096651   -5.3762714176
C       -4.5021630480   -5.0499449324   -5.0787190746
C       -3.4535747344   -4.1609635035   -3.2434684409
C       -3.9918369203   -4.0511373839   -5.9309300099
C       -2.8953081550   -3.1185556227   -4.0046441944
C       -1.8072220066   -0.8846620798   -3.7023747994
C       -0.1941674188    1.0220448800   -3.2436480753
C       -1.0702833218   -0.0767066033   -2.6371409004
N       -4.2355939920   -5.1036840738   -3.7717643771
N       -4.2514786102   -4.0787286780   -7.3062412311
N       -2.0428610533   -2.2012457350   -3.3513330495
O       -2.1630142366   -0.3985363276   -4.7711106489
H       -2.7356541682   -2.2798286306   -5.9849451013
H       -5.1473582000   -5.8323050593   -5.4793518957
H       -3.2598214654   -4.2260684197   -2.1720113040
H        0.6138290213    0.5928191122   -3.8440409963
H        0.2524110365    1.6344033237   -2.4543631382
H       -0.7880365822    1.6665002583   -3.8952774322
H       -1.8383244324    0.3718399036   -1.9933220003
H       -0.4751890554   -0.7389495151   -1.9972503087
H       -4.2019644603   -3.1738474488   -7.7604964360
H       -5.0985414418   -4.5734448568   -7.5618080253
H       -1.7843029009   -2.4599492523   -2.4069612247
23   
Generated by ForceBalance from scan.xyz: Frame 15 of 24
C       -3.0718532335   -3.1365910120   -5.3939063258
C       -4.5959134265   -4.9708471052   -5.0547361856
C       -3.5334735080   -4.0836412345   -3.2261677715
C       -3.9752407548   -4.0619713093   -5.9349554700
C       -2.8628600427   -3.1341744035   -4.0137868383
C       -1.8049430318   -0.9069732828   -3.6731856501
C       -0.2861418739    1.0799370237   -3.2288536041
C       -1.0083660938   -0.1287505951   -2.6295947676
N       -4.3759879310   -4.9843179990   -3.7385488787
N       -4.1944192747   -4.1339468110   -7.3162469787
N       -1.9375865068   -2.2585651928   -3.3947963409
O       -2.2839479296   -0.3807207002   -4.6710053309
H       -2.5594253947   -2.4189735161   -6.0241388975
H       -5.2944248493   -5.7134393583   -5.4418479839
H       -3.3828712790   -4.1092584708   -2.1465468728
H        0.4735633390    0.7643109896   -3.9504260578
H        0.2066135348    1.6597798533   -2.4424699803
H       -0.9938844084    1.7266621692   -3.7518308828
H       -1.7254199685    0.2043073285   -1.8674735019
H       -0.2996264416   -0.7930294942   -2.1210598723
H       -4.0677657022   -3.2551465253   -7.8055661765
H       -5.0695923748   -4.5747665611   -7.5761606073
H       -1.6227920532   -2.5507220047   -2.4772625532
23   
Generated by ForceBalance from scan.xyz: Frame 16 of 24
C       -2.9959358448   -3.2127716504   -5.4325367124
C       -4.6868971142   -4.8768067801   -5.0311817500
C       -3.5966945012   -3.9757551837   -3.2255525979
C       -3.9674681395   -4.0819737978   -5.9465860660
C       -2.8272587922   -3.1427473937   -4.0501312227
C       -1.8014080712   -0.9277914182   -3.6581125195
C       -0.3799827046    1.1276293813   -3.1971374176
C       -0.9460026637   -0.1799728807   -2.6396824582
N       -4.5023869375   -4.8310792567   -3.7105967653
N       -4.1610536806   -4.2182699277   -7.3270947791
N       -1.8324135571   -2.3055402721   -3.4755212868
O       -2.4021756125   -0.3678326525   -4.5659480751
H       -2.3987754386   -2.5857756576   -6.0866280970
H       -5.4395693213   -5.5772689450   -5.3949545937
H       -3.4767111889   -3.9452000909   -2.1425104218
H        0.3110708415    0.9345600260   -4.0232662452
H        0.1600283689    1.6738704028   -2.4176960246
H       -1.1843570552    1.7607848675   -3.5776329318
H       -1.5919381078    0.0299098884   -1.7765725034
H       -0.1417484416   -0.8300525322   -2.2754091401
H       -3.9532751785   -3.3821045386   -7.8614324613
H       -5.0650131310   -4.5991122327   -7.5835017581
H       -1.4613034627   -2.6326365511   -2.5907746710
23   
Generated by ForceBalance from scan.xyz: Frame 17 of 24
C       -2.9412442271   -3.2827050051   -5.4720914232
C       -4.7522003130   -4.7931111615   -5.0145707517
C       -3.6566131229   -3.8385546109   -3.2397080086
C       -3.9551117137   -4.1177256256   -5.9611018198
C       -2.8074433467   -3.1248580361   -4.0946077081
C       -1.8264144203   -0.9191728871   -3.6028016588
C       -0.4419177818    1.1598184086   -3.1367443463
C       -0.8775874596   -0.2183206499   -2.6346434390
N       -4.6052803992   -4.6648939980   -3.6947780984
N       -4.1189936501   -4.3402595986   -7.3343639936
N       -1.7668142096   -2.3071333912   -3.5592334634
O       -2.5710223774   -0.3159461809   -4.3639971506
H       -2.2779726799   -2.7467398655   -6.1449975425
H       -5.5406899818   -5.4662820016   -5.3535585586
H       -3.5668020439   -3.7348280289   -2.1588285312
H        0.1451565267    1.0739994514   -4.0562044019
H        0.1703035522    1.6659000658   -2.3839619487
H       -1.3140899932    1.7794669481   -3.3559858541
H       -1.4155329013   -0.1163470196   -1.6826444167
H       -0.0075160068   -0.8545671912   -2.4341049620
H       -3.8441287868   -3.5587972839   -7.9188877430
H       -5.0387382441   -4.6805312154   -7.5919452852
H       -1.2792013907   -2.6982806193   -2.7612402995
23   
Generated by ForceBalance from scan.xyz: Frame 18 of 24
C       -2.8930064203   -3.3545768992   -5.5121680506
C       -4.8193653311   -4.6994761648   -5.0211565341
C       -3.7379316255   -3.6714613321   -3.2791624191
C       -3.9376632610   -4.1639943330   -5.9813318755
C       -2.8027576060   -3.0964444115   -4.1471952969
C       -1.8568349433   -0.9131653523   -3.5174408261
C       -0.5076324104    1.1889564394   -3.0538239932
C       -0.7866367397   -0.2592944175   -2.6467831510
N       -4.7238238472   -4.4665796890   -3.7107087762
N       -4.0586509618   -4.4923075974   -7.3379487761
N       -1.7353650247   -2.2884108020   -3.6378587514
O       -2.7476962523   -0.2812586021   -4.0706564956
H       -2.1670771783   -2.9172176915   -6.1928861348
H       -5.6376105856   -5.3460648567   -5.3412515421
H       -3.6870304656   -3.4774206671   -2.2089261729
H       -0.0859457268    1.2381557819   -4.0624255337
H        0.2022206936    1.6520726919   -2.3614383605
H       -1.4321163084    1.7703795926   -3.0522492471
H       -1.1547436223   -0.2925674691   -1.6127672818
H        0.1332169971   -0.8556371183   -2.6688787249
H       -3.7044463633   -3.7845194690   -7.9715903061
H       -4.9891175073   -4.7893557987   -7.6103705986
H       -1.0847576727   -2.7446817691   -3.0091984333
23   
Generated by ForceBalance from scan.xyz: Frame 19 of 24
C       -3.2783028663   -3.1456542053   -5.1247088370
C       -4.6173821533   -5.1358460707   -5.1564522602
C       -3.2628198035   -4.7650365859   -3.3397827084
C       -4.2146686348   -3.9466215344   -5.7946465433
C       -2.7876628480   -3.5689722040   -3.8897782513
C       -2.1589831673   -2.0300299557   -2.0646691095
C       -1.1088676330   -0.8094340341   -0.1009625900
C       -1.0591122154   -1.0742164034   -1.6074405861
N       -4.1629392917   -5.5309652114   -3.9652839297
N       -4.6926208355   -3.6106119409   -7.0694383813
N       -1.8301420648   -2.7848573949   -3.1787106595
O       -3.2414799948   -2.1211024710   -1.5009121653
H       -2.9400956696   -2.2049864555   -5.5553899368
H       -5.3427041171   -5.7900943934   -5.6422160765
H       -2.9084415344   -5.0962182542   -2.3670825147
H       -2.0981170648   -0.4500724787    0.1904168715
H       -0.3629923075   -0.0599982100    0.1815315081
H       -0.9078426360   -1.7246423218    0.4641305526
H       -0.0760214408   -1.4592459802   -1.9030730749
H       -1.2052072587   -0.1343918230   -2.1562604776
H       -4.7145061410   -2.6145280718   -7.2577544307
H       -5.5820480854   -4.0396178092   -7.3005556900
H       -0.9827493654   -2.5331493595   -3.6729354869
23   
Generated by ForceBalance from scan.xyz: Frame 20 of 24
C       -3.2642819460   -3.1566049413   -5.1730960357
C       -4.6743165343   -5.0959929307   -5.1441853552
C       -3.4166212091   -4.6367115021   -3.2752745769
C       -4.1869853856   -3.9737705582   -5.8412168869
C       -2.8619838208   -3.5008033054   -3.8812845900
C       -2.1746626819   -2.0638481549   -1.9826812086
C       -0.9950205779   -0.8821970940   -0.0693285107
C       -1.1351466687   -1.0175429860   -1.5874171423
N       -4.3069132454   -5.4133649843   -3.9010307821
N       -4.5710025145   -3.7197025309   -7.1663216887
N       -1.9143652570   -2.6967150650   -3.1902178251
O       -3.1539858961   -2.3210729506   -1.2962925377
H       -2.8650875445   -2.2648799995   -5.6539556037
H       -5.3928396478   -5.7610133972   -5.6251620935
H       -3.1382957875   -4.9080998948   -2.2616741394
H       -1.9660492972   -0.6761661937    0.3859610976
H       -0.3075698170   -0.0683381718    0.1810848562
H       -0.6091769099   -1.8061520531    0.3720723499
H       -0.1678246014   -1.2494705123   -2.0484952326
H       -1.4666709685   -0.0629969608   -2.0173721160
H       -4.5444855767   -2.7405592951   -7.4284797423
H       -5.4601899996   -4.1354346345   -7.4214358090
H       -1.1730257563   -2.2980669170   -3.7535919468
23   
Generated by ForceBalance from scan.xyz: Frame 21 of 24
C       -3.2673871937   -3.1855144629   -5.2129046297
C       -4.6852556230   -5.1175551471   -5.1484343872
C       -3.5281191046   -4.5508119989   -3.2387348574
C       -4.1564569475   -4.0373768822   -5.8807694756
C       -2.9385567435   -3.4492847335   -3.8802165309
C       -2.1642274437   -2.0948679762   -1.9346766737
C       -0.8604553860   -0.9393214178   -0.0873221532
C       -1.1693006995   -0.9900071868   -1.5853675551
N       -4.3838523532   -5.3608513533   -3.8718802680
N       -4.4652641338   -3.8609048777   -7.2378218254
N       -2.0141773262   -2.6048208278   -3.2159721817
O       -3.0200354015   -2.4885442999   -1.1538839372
H       -2.8353355096   -2.3278890467   -5.7271106356
H       -5.3784278403   -5.8097654000   -5.6282400410
H       -3.3103737654   -4.7654622665   -2.1987505861
H       -1.7830967425   -0.8444980218    0.4891420029
H       -0.2120324078   -0.0879652673    0.1414281361
H       -0.3558413218   -1.8535711119    0.2395496647
H       -0.2481359161   -1.1092657593   -2.1681120421
H       -1.6215716282   -0.0418776655   -1.9054516779
H       -4.4248320899   -2.8984512124   -7.5542605854
H       -5.3384118883   -4.2942900561   -7.5176474903
H       -1.3635925013   -2.1116058394   -3.8151764124
23   
Generated by ForceBalance from scan.xyz: Frame 22 of 24
C       -3.2770248298   -3.2004875155   -5.2282087037
C       -4.7097371661   -5.1202812130   -5.1545539700
C       -3.6703046782   -4.4589292818   -3.2045097052
C       -4.1287306392   -4.0800913247   -5.9058510684
C       -3.0344862675   -3.3909357936   -3.8626986714
C       -2.1722136719   -2.1153821576   -1.8828053735
C       -0.7423892026   -0.9976087667   -0.1066044476
C       -1.2242861216   -0.9618057093   -1.5586278709
N       -4.4884171040   -5.2974059414   -3.8522884315
N       -4.3500156963   -3.9727957983   -7.2868613406
N       -2.1446740202   -2.5063543022   -3.2110118882
O       -2.8961549282   -2.6328023158   -1.0418364173
H       -2.8036462265   -2.3765831099   -5.7614041892
H       -5.3767867778   -5.8336002359   -5.6404299507
H       -3.5216053856   -4.6224110440   -2.1446731259
H       -1.5936531863   -1.0207956995    0.5770182839
H       -0.1343398895   -0.1155574346    0.1165766930
H       -0.1377161764   -1.8894854129    0.0837992050
H       -0.3727810237   -0.9605489721   -2.2497193325
H       -1.7788759156   -0.0325342729   -1.7449717146
H       -4.2851590805   -3.0282085085   -7.6495843606
H       -5.2051142711   -4.4196801603   -7.5991886917
H       -1.5660187273   -1.9450764305   -3.8235498923
23   
Generated by ForceBalance from scan.xyz: Frame 23 of 24
C       -3.2873834378   -3.2053331311   -5.2345166523
C       -4.7249075435   -5.1206345710   -5.1617293773
C       -3.8069238230   -4.3686939722   -3.1812731039
C       -4.0978179022   -4.1141936178   -5.9222787862
C       -3.1315644761   -3.3283764940   -3.8474640307
C       -2.1843986285   -2.1254829453   -1.8476048476
C       -0.6346199094   -1.0595964282   -0.1421196328
C       -1.2740175145   -0.9403471903   -1.5272780601
N       -4.5827373161   -5.2373870883   -3.8424571219
N       -4.2324358478   -4.0708256947   -7.3177608641
N       -2.2874411328   -2.4013082490   -3.1987264144
O       -2.7798923812   -2.7520436531   -0.9795368430
H       -2.7768057393   -2.4101303599   -5.7772323336
H       -5.3625849054   -5.8559579007   -5.6541958606
H       -3.7206578647   -4.4862781070   -2.1092622732
H       -1.4031891493   -1.1928274062    0.6221048522
H       -0.0570867945   -0.1598378864    0.0911371702
H        0.0370399135   -1.9220330000   -0.0930597813
H       -0.5044473311   -0.8269385160   -2.3004092290
H       -1.8977217619   -0.0378654772   -1.5739519001
H       -4.1465451924   -3.1437460037   -7.7191199170
H       -5.0650868560   -4.5361107686   -7.6621429691
H       -1.7682748387   -1.7881309779   -3.8145291707
23   
Generated by ForceBalance from scan.xyz: Frame 24 of 24
C       -3.4275033425   -3.2057180333   -5.2969059009
C       -4.6326637849   -5.2758723429   -5.2466812409
C       -3.5806301744   -4.5769836539   -3.3130118609
C       -4.2097907394   -4.1459045919   -5.9743147874
C       -3.1033750004   -3.4148306911   -3.9492677951
C       -1.8551240083   -2.3992228101   -2.0078085858
C       -0.9736107750   -0.8121237614   -0.2325518069
C       -0.9407371620   -1.2111445241   -1.7092678302
N       -4.3271291826   -5.4773212953   -3.9662607693
N       -4.5059774511   -4.0108128953   -7.3385700829
N       -2.3110907250   -2.4366152718   -3.3121069418
O       -2.1277610893   -3.2480103301   -1.1673105018
H       -3.0661445250   -2.3198228652   -5.8187430519
H       -5.2406692292   -6.0396139644   -5.7334545735
H       -3.3553857145   -4.7695477299   -2.2727319120
H       -1.9669945873   -0.4551172659    0.0555844663
H       -0.2506006691   -0.0145067260   -0.0361752753
H       -0.7328124695   -1.6693741128    0.3995739908
H        0.0763875255   -1.5123136119   -1.9926443415
H       -1.1998308521   -0.3571380277   -2.3469711640
H       -4.5710066632   -3.0519365829   -7.6614039311
H       -5.3142532649   -4.5462847838   -7.6357694436
H       -2.0200010938   -1.6679910240   -3.9029619554
