23   
Generated by ForceBalance from scan.xyz: Frame 1 of 24
C        2.0902487531   -0.9843897030   -0.1383249151
C        1.0054585731   -0.4494917123    0.5588403925
C        3.1355531583   -1.6011370932    0.5517488280
C        1.9849999247   -1.1618320805    2.6621787990
C        0.9516350755   -0.5344837351    1.9580763620
C        3.0627776681   -1.6743921342    1.9440911082
C       -0.2332281163    0.0528589931    2.6559819300
C       -1.0018302445    0.1729641695    6.2198668857
C       -1.2789020723    0.4453970094    4.7537122034
N        4.1487800974   -2.3473537854    2.6796568221
O        3.9400610573   -2.6522476708    3.8581476433
O       -1.1552883359    0.6008051075    2.0775965967
O        5.1964632326   -2.5794120925    2.0672940709
O       -0.1624489039   -0.0942765815    3.9938125709
H        2.1243185919   -0.9219624330   -1.2218781757
H        0.1872548590    0.0370601756    0.0372338780
H        3.9933987703   -2.0183591845    0.0369990504
H        1.9562371438   -1.2499650970    3.7406516641
H       -0.9156988401   -0.9008567746    6.4095862701
H       -0.0754584494    0.6582061644    6.5406677787
H       -1.8242593205    0.5652880649    6.8264262586
H       -1.3586037010    1.5143539808    4.5384442169
H       -2.1969376257   -0.0378788495    4.4087053468
23   
Generated by ForceBalance from scan.xyz: Frame 2 of 24
C        2.0929895407   -0.9981314243   -0.1394154219
C        1.0107522957   -0.4592319928    0.5584239672
C        3.1445553058   -1.6026782895    0.5525087579
C        1.9963235663   -1.1599629003    2.6640984574
C        0.9624133156   -0.5347163825    1.9585673430
C        3.0768650583   -1.6632251660    1.9449294674
C       -0.2214672368    0.0551430745    2.6558116779
C       -0.9866592162    0.1853017460    6.2201268491
C       -1.2648340816    0.4532663053    4.7533762131
N        4.1565300692   -2.3469295760    2.6761129185
O        3.8656689471   -2.8895717017    3.7468199099
O       -1.1450965774    0.6008552841    2.0779464039
O        5.2760561313   -2.3622178488    2.1536964034
O       -0.1483789183   -0.0874038529    3.9941352260
H        2.1205214400   -0.9484537322   -1.2238169585
H        0.1894060852    0.0217100209    0.0366198527
H        4.0042051627   -2.0174015805    0.0378053839
H        1.9648760060   -1.2512774665    3.7426594992
H       -0.8993934309   -0.8878886149    6.4128702208
H       -0.0607057143    0.6725449032    6.5391497128
H       -1.8091854544    0.5785116372    6.8259849461
H       -1.3458252036    1.5215115654    4.5350804557
H       -2.1825751533   -0.0319938562    4.4103992847
23   
Generated by ForceBalance from scan.xyz: Frame 3 of 24
C        2.0648632170   -1.0069842327   -0.1370037083
C        0.9829116111   -0.4674346068    0.5606531518
C        3.1210271491   -1.6030189736    0.5561932057
C        1.9717167406   -1.1590738989    2.6669573626
C        0.9359491527   -0.5367402940    1.9610516597
C        3.0552052405   -1.6538977705    1.9482407925
C       -0.2487057498    0.0514048412    2.6581916409
C       -1.0017641027    0.2003289123    6.2246582183
C       -1.2878296693    0.4558003752    4.7571580665
N        4.1288026919   -2.3472998041    2.6777807574
O        3.7932069837   -3.1114311381    3.5878566261
O       -1.1761505835    0.5896838655    2.0796613554
O        5.2879544962   -2.1555062575    2.2967416461
O       -0.1708381586   -0.0827970284    3.9974604420
H        2.0892794543   -0.9645983192   -1.2218058002
H        0.1593552293    0.0083926255    0.0377754959
H        3.9820892260   -2.0150063455    0.0405284334
H        1.9367055700   -1.2525436654    3.7456836664
H       -0.9060415027   -0.8708238049    6.4246985756
H       -0.0780316678    0.6965382223    6.5363032591
H       -1.8244897189    0.5919370641    6.8312604387
H       -1.3770635062    1.5218590971    4.5315881415
H       -2.2036137491   -0.0382379173    4.4215402597
23   
Generated by ForceBalance from scan.xyz: Frame 4 of 24
C        2.0442090418   -1.0137503057   -0.1401746851
C        0.9646117074   -0.4726934514    0.5597449253
C        3.1037361160   -1.6073447733    0.5508885608
C        1.9625203058   -1.1556655968    2.6652798345
C        0.9230352865   -0.5372241206    1.9601990127
C        3.0419339946   -1.6501555630    1.9424501674
C       -0.2600028320    0.0506582624    2.6599985528
C       -0.9994972724    0.2087436786    6.2292008165
C       -1.2919646583    0.4584354174    4.7619452344
N        4.1184330294   -2.3450630311    2.6693993610
O        3.7940219586   -3.3023283753    3.3774028750
O       -1.1911261286    0.5854799934    2.0843355759
O        5.2734713451   -1.9557011563    2.4743503175
O       -0.1768168850   -0.0801062798    3.9996629719
H        2.0649566220   -0.9748722271   -1.2251954646
H        0.1387433354    0.0004827735    0.0382486807
H        3.9621666274   -2.0205994818    0.0307857292
H        1.9292244466   -1.2443751251    3.7448948116
H       -0.9008794816   -0.8615111153    6.4327368642
H       -0.0755806417    0.7080374448    6.5353897620
H       -1.8205402910    0.6008006042    6.8377885778
H       -1.3846694624    1.5235152306    4.5332024224
H       -2.2079725748   -0.0388659869    4.4317897409
23   
Generated by ForceBalance from scan.xyz: Frame 5 of 24
C        2.0579723429   -1.0327470403   -0.1407230077
C        0.9795649106   -0.4846375478    0.5553451202
C        3.1112209860   -1.6350819139    0.5531857023
C        1.9760569286   -1.1619045989    2.6641447339
C        0.9371530356   -0.5447097949    1.9554283656
C        3.0472129638   -1.6744601705    1.9438776117
C       -0.2431729820    0.0508524280    2.6530873741
C       -0.9848027521    0.2219616681    6.2215243156
C       -1.2736442807    0.4705610691    4.7533479709
N        4.1316716145   -2.3560937151    2.6777254531
O        3.8778536497   -3.4654464288    3.1525277489
O       -1.1713993731    0.5894932348    2.0763922163
O        5.2229608289   -1.7836604007    2.7293217346
O       -0.1615754179   -0.0774305439    3.9934387444
H        2.0831840708   -0.9933650318   -1.2256457519
H        0.1571643889   -0.0083275050    0.0313771586
H        3.9644176987   -2.0582482981    0.0316813190
H        1.9439839551   -1.2347557933    3.7452681090
H       -0.8942170109   -0.8485474853    6.4275701176
H       -0.0577669087    0.7153525072    6.5278905989
H       -1.8037972101    0.6211583768    6.8282324296
H       -1.3584791274    1.5358310633    4.5224252301
H       -2.1928959569   -0.0207265560    4.4232237147
23   
Generated by ForceBalance from scan.xyz: Frame 6 of 24
C        1.9881177985   -1.0158876780   -0.1355472227
C        0.9127914252   -0.4737912873    0.5696800224
C        3.0419843775   -1.6290015696    0.5483189461
C        1.9300944559   -1.1511236494    2.6696276056
C        0.8813158661   -0.5397158669    1.9695952858
C        2.9851960600   -1.6800055909    1.9384412706
C       -0.2928606702    0.0555802064    2.6777366346
C       -1.0065911230    0.2323646741    6.2517869058
C       -1.3052951138    0.4798891208    4.7854336922
N        4.0959302379   -2.3280523348    2.6670357972
O        3.9931299961   -3.5366591483    2.8868533089
O       -1.2250810724    0.5951025798    2.1083440030
O        5.0431945071   -1.6127438498    2.9998663546
O       -0.2012772187   -0.0734483600    4.0175328664
H        2.0104960271   -0.9639423778   -1.2200007033
H        0.0869872371    0.0052524839    0.0536882505
H        3.8870967315   -2.0566978306    0.0171569291
H        1.9150157954   -1.2077905791    3.7522133613
H       -0.9201917645   -0.8382175798    6.4592812398
H       -0.0747897073    0.7215161334    6.5503696304
H       -1.8190034816    0.6369733395    6.8637649242
H       -1.3875613724    1.5451886536    4.5537226047
H       -2.2291100050   -0.0079330088    4.4630152268
23   
Generated by ForceBalance from scan.xyz: Frame 7 of 24
C        2.0045868768   -1.0372748904   -0.1500255901
C        0.9282140190   -0.4967972891    0.5547874734
C        3.0514649804   -1.6619632482    0.5340068038
C        1.9438653719   -1.1713595526    2.6556034520
C        0.8934618700   -0.5647701012    1.9548957066
C        2.9875388007   -1.7232845012    1.9236240447
C       -0.2782968514    0.0363937513    2.6623134799
C       -0.9828381402    0.2340884364    6.2368794235
C       -1.2844911551    0.4756711674    4.7701237179
N        4.1108115947   -2.3394808911    2.6570832532
O        4.1949565428   -3.5697662183    2.6269706688
O       -1.2083375258    0.5777694083    2.0911395961
O        4.8639706976   -1.5811597936    3.2718538868
O       -0.1861841169   -0.0888170253    4.0022422335
H        2.0334693628   -0.9741212615   -1.2337200774
H        0.1049875579   -0.0136169837    0.0384475878
H        3.8933211230   -2.0976602316    0.0043784740
H        1.9398201471   -1.2103353913    3.7388962040
H       -0.9027553082   -0.8359047853    6.4498880094
H       -0.0467912432    0.7185967327    6.5296356977
H       -1.7905255303    0.6473446001    6.8493260493
H       -1.3604522962    1.5402511200    4.5329539950
H       -2.2122800174   -0.0079448888    4.4528320145
23   
Generated by ForceBalance from scan.xyz: Frame 8 of 24
C        1.9685537332   -1.0351345811   -0.1297063575
C        0.8950974979   -0.4910823098    0.5771812492
C        3.0140256441   -1.6628421530    0.5526069308
C        1.9200210426   -1.1507003819    2.6771945086
C        0.8652134386   -0.5514896053    1.9781506809
C        2.9552576648   -1.7188369061    1.9436917701
C       -0.3038628051    0.0542318899    2.6863655958
C       -1.0027805935    0.2581605764    6.2614843654
C       -1.3047658151    0.5012502342    4.7950731275
N        4.0866494470   -2.3178442353    2.6727346525
O        4.3568209919   -3.4963448569    2.4228996919
O       -1.2334862765    0.5961663684    2.1149001356
O        4.6514637927   -1.6150802615    3.5150086968
O       -0.2100427870   -0.0689102492    4.0260366932
H        1.9948538566   -0.9727489944   -1.2134871695
H        0.0706319265   -0.0088434631    0.0618202087
H        3.8516065023   -2.1078292090    0.0245408374
H        1.9287743022   -1.1752119611    3.7605559743
H       -0.9285380182   -0.8122487318    6.4744654076
H       -0.0636290892    0.7372413847    6.5531340617
H       -1.8074908550    0.6760620463    6.8746942390
H       -1.3753641019    1.5661764855    4.5577826517
H       -2.2353540502    0.0224409149    4.4787295188
23   
Generated by ForceBalance from scan.xyz: Frame 9 of 24
C        1.9202772912   -1.0166873280   -0.1181386224
C        0.8522313668   -0.4671198682    0.5930598190
C        2.9657174092   -1.6465846555    0.5610294813
C        1.8850281392   -1.1241435284    2.6904287174
C        0.8291615939   -0.5243208750    1.9946253685
C        2.9157952796   -1.6986697537    1.9537155361
C       -0.3354290440    0.0860628284    2.7063939452
C       -1.0162201282    0.2969366243    6.2842218787
C       -1.3247465967    0.5394933479    4.8191096222
N        4.0474751193   -2.3015333333    2.6756791150
O        4.4922777783   -3.3677821302    2.2379039848
O       -1.2662115876    0.6300487885    2.1386088104
O        4.4453082341   -1.7252026514    3.6923732959
O       -0.2357192488   -0.0353809806    4.0453663278
H        1.9414786936   -0.9563886725   -1.2021473826
H        0.0266828136    0.0167546011    0.0808113129
H        3.7996389661   -2.0973616646    0.0330592006
H        1.9012189234   -1.1474695553    3.7733158341
H       -0.9448784324   -0.7734921365    6.4980179329
H       -0.0737081647    0.7726358381    6.5704306935
H       -1.8162232809    0.7186327485    6.9009752327
H       -1.3927319503    1.6043758681    4.5808453813
H       -2.2584871392    0.0635367319    4.5077943221
23   
Generated by ForceBalance from scan.xyz: Frame 10 of 24
C        1.9079840650   -1.0203723420   -0.1158547103
C        0.8422284398   -0.4676236288    0.5965431424
C        2.9563815468   -1.6448659627    0.5627540427
C        1.8780755631   -1.1196278705    2.6920745214
C        0.8215343806   -0.5192310442    1.9983831338
C        2.9135136007   -1.6899887638    1.9568334364
C       -0.3425939789    0.0924458778    2.7102297587
C       -1.0183369050    0.3225372074    6.2876474001
C       -1.3305832444    0.5539057375    4.8215342583
N        4.0393265396   -2.3057501808    2.6786504598
O        4.6526147050   -3.2127803554    2.1057946663
O       -1.2753238832    0.6312298640    2.1405222879
O        4.2776236000   -1.8994781903    3.8202110394
O       -0.2403958188   -0.0211868077    4.0494607025
H        1.9245672233   -0.9665577769   -1.2002875848
H        0.0150699714    0.0137254649    0.0844484840
H        3.7903198204   -2.0956384632    0.0360539667
H        1.8943413845   -1.1475898425    3.7743762042
H       -0.9415658691   -0.7460576904    6.5084960714
H       -0.0775075656    0.8044487846    6.5689013349
H       -1.8192121150    0.7447332768    6.9029425434
H       -1.4038370471    1.6168554599    4.5763117420
H       -2.2627046746    0.0716815967    4.5149988236
23   
Generated by ForceBalance from scan.xyz: Frame 11 of 24
C        1.9053810645   -1.0392834822   -0.1185205770
C        0.8416518592   -0.4814648512    0.5929846070
C        2.9585240945   -1.6542956216    0.5610444940
C        1.8810432035   -1.1268225980    2.6893864451
C        0.8255432932   -0.5258968064    1.9950539966
C        2.9228371068   -1.6899908328    1.9563228546
C       -0.3368477569    0.0884763624    2.7073885809
C       -1.0031328031    0.3264142439    6.2859249925
C       -1.3200156749    0.5543478438    4.8202439237
N        4.0428152501   -2.3169534241    2.6814712589
O        4.8175715481   -3.0271908958    2.0319042530
O       -1.2706257017    0.6261077217    2.1381982166
O        4.1297235076   -2.1072796746    3.8954652212
O       -0.2314921511   -0.0215330747    4.0465085828
H        1.9165714806   -0.9965499471   -1.2035220892
H        0.0126741014   -0.0037076945    0.0803539346
H        3.7936616737   -2.1025725076    0.0351416709
H        1.8944833574   -1.1598915461    3.7712147156
H       -0.9241688947   -0.7416255050    6.5086110721
H       -0.0620178987    0.8100081911    6.5633128554
H       -1.8026523727    0.7488381081    6.9028130908
H       -1.3950497244    1.6166661997    4.5728243280
H       -2.2525462595    0.0704809735    4.5175345710
23   
Generated by ForceBalance from scan.xyz: Frame 12 of 24
C        1.8812471166   -1.0350399325   -0.1136207896
C        0.8195144167   -0.4720758912    0.5968645169
C        2.9395911416   -1.6402169258    0.5665392087
C        1.8597333040   -1.1122031891    2.6942485022
C        0.8061396850   -0.5091636634    1.9991074607
C        2.9073302786   -1.6666803531    1.9623504135
C       -0.3549520769    0.1085627148    2.7107978302
C       -1.0143782642    0.3578703240    6.2897537045
C       -1.3340258159    0.5813444964    4.8238905353
N        4.0210699437   -2.3038975691    2.6898341077
O        4.9393051926   -2.7890264948    2.0206376884
O       -1.2903148273    0.6426273734    2.1409699241
O        3.9695662681   -2.3145844045    3.9237057996
O       -0.2458811564    0.0057667275    4.0501681857
H        1.8869568782   -1.0037773989   -1.1990481041
H       -0.0109064914    0.0021516919    0.0832773306
H        3.7768544989   -2.0852748703    0.0416799861
H        1.8691084577   -1.1516789572    3.7757598116
H       -0.9367117285   -0.7094845746    6.5160984451
H       -0.0717486964    0.8407308689    6.5633430449
H       -1.8117294887    0.7841053315    6.9067914118
H       -1.4121231969    1.6429037056    4.5739868188
H       -2.2662149755    0.0949063974    4.5241364403
23   
Generated by ForceBalance from scan.xyz: Frame 13 of 24
C        1.8979977224   -1.0526973095   -0.1189603073
C        0.8396007427   -0.4852050001    0.5928475978
C        2.9616333058   -1.6486856522    0.5612136455
C        1.8833966812   -1.1225587173    2.6895068276
C        0.8308048790   -0.5163623228    1.9953398951
C        2.9351889182   -1.6676119904    1.9570263055
C       -0.3280802413    0.1043763638    2.7078720953
C       -0.9812024170    0.3661733334    6.2871691353
C       -1.3034607641    0.5843668326    4.8211776935
N        4.0433705473   -2.3159532848    2.6815000726
O        5.0746877937   -2.5611063096    2.0467503349
O       -1.2655636633    0.6352871064    2.1384647419
O        3.8798517004   -2.5602390572    3.8810350407
O       -0.2148974568    0.0085588347    4.0474440725
H        1.8970630053   -1.0319519042   -1.2046623334
H        0.0071295806   -0.0137858017    0.0800101654
H        3.8004362294   -2.0903227532    0.0355260174
H        1.8893941828   -1.1691117939    3.7709060414
H       -0.8955332910   -0.7002067524    6.5152011409
H       -0.0421162132    0.8565794396    6.5594803968
H       -1.7813997248    0.7873692265    6.9040183761
H       -1.3839949893    1.6448663966    4.5677407310
H       -2.2347562231    0.0945886954    4.5242400426
23   
Generated by ForceBalance from scan.xyz: Frame 14 of 24
C        1.8832972541   -1.0651462778   -0.1172907432
C        0.8280826020   -0.4932927668    0.5957166420
C        2.9524680977   -1.6519748365    0.5625199295
C        1.8756887578   -1.1239685560    2.6919259655
C        0.8229424994   -0.5166949158    1.9984528899
C        2.9302241531   -1.6597103036    1.9577885691
C       -0.3345770584    0.1069659126    2.7106746696
C       -0.9861520318    0.3808907618    6.2894867665
C       -1.3087436598    0.5934965064    4.8227727441
N        4.0321773954   -2.3187248758    2.6782293619
O        5.1415650400   -2.3263989425    2.1339962232
O       -1.2724973425    0.6363412269    2.1406689917
O        3.7852852040   -2.7920316751    3.7917946473
O       -0.2199886898    0.0158021566    4.0506202669
H        1.8758363030   -1.0549223771   -1.2031105165
H       -0.0064921445   -0.0253897272    0.0831937895
H        3.7927628877   -2.0912254604    0.0361884677
H        1.8788896225   -1.1756144055    3.7734739628
H       -0.9000877058   -0.6845818913    6.5215662512
H       -0.0473363008    0.8728695821    6.5599426858
H       -1.7864809723    0.8040903994    6.9048030133
H       -1.3902892851    1.6529902796    4.5655168117
H       -2.2396846125    0.1018349806    4.5278551100
23   
Generated by ForceBalance from scan.xyz: Frame 15 of 24
C        1.8868280713   -1.0773280382   -0.1200851418
C        0.8331181921   -0.5017755746    0.5919423188
C        2.9589414882   -1.6588718491    0.5606229093
C        1.8832355204   -1.1273989565    2.6903101394
C        0.8314228678   -0.5202280983    1.9947411736
C        2.9388280790   -1.6569209481    1.9550296254
C       -0.3252368568    0.1045327144    2.7069655463
C       -0.9632281794    0.3930049621    6.2872649057
C       -1.2933989820    0.5963184062    4.8208996745
N        4.0329776803   -2.3278189837    2.6748270766
O        5.1833843532   -2.1149544873    2.2777947600
O       -1.2665438949    0.6294453204    2.1385780705
O        3.7308324726   -3.0204090110    3.6511067611
O       -0.2054079743    0.0195618480    4.0470991390
H        1.8763597490   -1.0744386365   -1.2059222085
H       -0.0027027080   -0.0365224683    0.0791013356
H        3.7992596044   -2.0980521030    0.0330212851
H        1.8824434112   -1.1815100670    3.7722167123
H       -0.8703175783   -0.6707836804    6.5244451169
H       -0.0259825219    0.8916127933    6.5510398014
H       -1.7630989849    0.8149508313    6.9040189794
H       -1.3810457271    1.6540498613    4.5585132229
H       -2.2233397902    0.0987583138    4.5327865104
23   
Generated by ForceBalance from scan.xyz: Frame 16 of 24
C        1.9285159738   -1.1077121539   -0.1320350750
C        0.8766941506   -0.5244426492    0.5761021991
C        2.9986974026   -1.6906282477    0.5517044300
C        1.9246999409   -1.1422189817    2.6774502599
C        0.8740735920   -0.5354304169    1.9786462763
C        2.9771950413   -1.6790671802    1.9449416967
C       -0.2809443768    0.0957765178    2.6876722450
C       -0.9226281589    0.4034535779    6.2660969473
C       -1.2497792288    0.6009252201    4.7982322825
N        4.0677184256   -2.3521591465    2.6716236084
O        5.2147449274   -1.9411495138    2.4724371257
O       -1.2197806557    0.6210100855    2.1156744485
O        3.7525009108   -3.2446687519    3.4630668574
O       -0.1628654509    0.0166091674    4.0287444601
H        1.9190098911   -1.1102328726   -1.2178837942
H        0.0429286586   -0.0590616302    0.0602046684
H        3.8360769460   -2.1359803406    0.0236269646
H        1.9209142245   -1.1894613113    3.7600876421
H       -0.8341633643   -0.6595349120    6.5086107652
H        0.0160003545    0.8999462250    6.5290047705
H       -1.7218609569    0.8312837471    6.8796235228
H       -1.3332419990    1.6577368385    4.5308201681
H       -2.1811713737    0.1054536305    4.5112212671
23   
Generated by ForceBalance from scan.xyz: Frame 17 of 24
C        1.9500978916   -1.1360294470   -0.1531872904
C        0.8997971241   -0.5482943129    0.5531339276
C        3.0184303547   -1.7218275023    0.5320818960
C        1.9554655614   -1.1503260051    2.6562567951
C        0.9009975886   -0.5511034172    1.9553174183
C        2.9987196915   -1.7030073329    1.9242519608
C       -0.2515749580    0.0848315976    2.6638448335
C       -0.8909752461    0.4006125112    6.2421732308
C       -1.2166667559    0.5986172887    4.7740287478
N        4.0993212835   -2.3603055354    2.6563973710
O        5.1849078696   -1.7752230227    2.6841268438
O       -1.1901687521    0.6107042365    2.0921791167
O        3.8438041420   -3.4304711576    3.2129030028
O       -0.1326654147    0.0081959833    4.0053211811
H        1.9413191574   -1.1411422970   -1.2390566846
H        0.0659239816   -0.0844128545    0.0361806358
H        3.8502811838   -2.1756590057    0.0018739110
H        1.9570788739   -1.1790528918    3.7398757213
H       -0.8087794527   -0.6626930350    6.4856127222
H        0.0504150526    0.8919512390    6.5049303180
H       -1.6878523757    0.8334653851    6.8552435499
H       -1.2945487513    1.6556659996    4.5058265775
H       -2.1506312726    0.1078552210    4.4873019322
23   
Generated by ForceBalance from scan.xyz: Frame 18 of 24
C        1.9228496524   -1.1342042732   -0.1393299334
C        0.8717272847   -0.5482325103    0.5672941749
C        2.9851330721   -1.7320575256    0.5450235016
C        1.9306360897   -1.1501384171    2.6696502227
C        0.8729484083   -0.5548896311    1.9690967852
C        2.9604921144   -1.7247788230    1.9370022266
C       -0.2759796223    0.0861788346    2.6786919208
C       -0.9026023443    0.4208791860    6.2577719982
C       -1.2317503907    0.6132108050    4.7896595145
N        4.0814505952   -2.3542920473    2.6661867380
O        5.0422073327   -1.6349423223    2.9474351164
O       -1.2142186138    0.6147908693    2.1089523184
O        3.9734763729   -3.5518621177    2.9380685724
O       -0.1541241136    0.0120290875    4.0202364211
H        1.9200947252   -1.1278208905   -1.2252349518
H        0.0399655108   -0.0799885644    0.0509582687
H        3.8120022077   -2.1928259680    0.0128096977
H        1.9413281587   -1.1600882730    3.7537246802
H       -0.8267556589   -0.6415939543    6.5069157742
H        0.0428064663    0.9074601627    6.5148830261
H       -1.6946796586    0.8623514960    6.8709234137
H       -1.3038171489    1.6693896918    4.5164370896
H       -2.1698351430    0.1271287840    4.5085154528
23   
Generated by ForceBalance from scan.xyz: Frame 19 of 24
C        1.9745127584   -1.1840183448   -0.1455579604
C        0.9169113909   -0.5981946192    0.5517125952
C        3.0270865474   -1.7875779509    0.5483101353
C        1.9644238454   -1.1829796498    2.6634566610
C        0.9073456700   -0.5987299029    1.9536920671
C        2.9887555691   -1.7804137516    1.9404847087
C       -0.2448027043    0.0479064891    2.6529798665
C       -0.8813591052    0.4094747443    6.2274869551
C       -1.2061076004    0.5929894014    4.7572374060
N        4.1239365337   -2.3701025490    2.6772607457
O        4.9133321377   -1.5883780695    3.2123173202
O       -1.1799699450    0.5739675308    2.0758860744
O        4.2211674046   -3.5996417048    2.6714410846
O       -0.1289195719   -0.0182293856    3.9953111472
H        1.9838999085   -1.1733208148   -1.2313945403
H        0.0894917419   -0.1309828859    0.0274554702
H        3.8541797313   -2.2580621783    0.0252971954
H        1.9797670679   -1.1698817358    3.7473184000
H       -0.8118456683   -0.6516066605    6.4843218373
H        0.0662605594    0.8925510929    6.4830342173
H       -1.6722329545    0.8596447662    6.8358207326
H       -1.2726045538    1.6475320622    4.4763695270
H       -2.1455597619    0.1090549658    4.4769533256
23   
Generated by ForceBalance from scan.xyz: Frame 20 of 24
C        1.9511014175   -1.1825253301   -0.1455707876
C        0.8987216301   -0.5921312139    0.5559232249
C        2.9997151317   -1.7959046780    0.5448612718
C        1.9518908703   -1.1749141456    2.6646491190
C        0.8933500073   -0.5910129570    1.9584695934
C        2.9654309868   -1.7888180137    1.9380135844
C       -0.2538158163    0.0619006860    2.6603400095
C       -0.8782311399    0.4285509718    6.2361930121
C       -1.2058688940    0.6145097070    4.7669090893
N        4.1077684936   -2.3643746155    2.6687681957
O        4.7246522156   -1.6153007590    3.4311409105
O       -1.1873295429    0.5923963739    2.0845457173
O        4.4004109894   -3.5383266855    2.4239047314
O       -0.1349658001   -0.0042256106    4.0020634087
H        1.9585354019   -1.1677808132   -1.2313607100
H        0.0720352775   -0.1204417806    0.0343765762
H        3.8211890062   -2.2761558247    0.0226259046
H        1.9800270790   -1.1522699421    3.7478123920
H       -0.8153690240   -0.6330280074    6.4926429657
H        0.0735309539    0.9048219508    6.4890029423
H       -1.6642102502    0.8841608698    6.8468123315
H       -1.2655484230    1.6695138631    4.4862199240
H       -2.1494222407    0.1372255817    4.4890252924
23   
Generated by ForceBalance from scan.xyz: Frame 21 of 24
C        1.9563222567   -1.2037374590   -0.1432885425
C        0.9040199989   -0.6104391135    0.5560798824
C        3.0051457736   -1.8130797473    0.5494836594
C        1.9596412548   -1.1809565955    2.6662397827
C        0.8998155342   -0.6022273183    1.9589489220
C        2.9755293350   -1.7983282346    1.9436224532
C       -0.2483627902    0.0520427429    2.6581980121
C       -0.8722159162    0.4351731087    6.2321280279
C       -1.2013094785    0.6126506923    4.7621433477
N        4.1149746884   -2.3723634260    2.6769677510
O        4.5572102568   -1.7264873556    3.6319709958
O       -1.1827568345    0.5777247828    2.0792664941
O        4.5818041601   -3.4355733870    2.2559409141
O       -0.1294392395   -0.0077380230    3.9998379919
H        1.9627429200   -1.1939718096   -1.2291299803
H        0.0763629134   -0.1420462201    0.0329641340
H        3.8268311919   -2.2964467781    0.0315446379
H        1.9909054606   -1.1542850693    3.7487940682
H       -0.8069889030   -0.6248739931    6.4941846911
H        0.0788510349    0.9145442711    6.4815718049
H       -1.6586646816    0.8925398002    6.8408272497
H       -1.2634833468    1.6659945398    4.4758306131
H       -2.1439199112    0.1317520923    4.4872832681
23   
Generated by ForceBalance from scan.xyz: Frame 22 of 24
C        1.9639193651   -1.2321032142   -0.1468884648
C        0.9120072960   -0.6382279017    0.5527011614
C        3.0175160427   -1.8329665100    0.5451565843
C        1.9735999757   -1.2011439837    2.6627700750
C        0.9122963007   -0.6255545465    1.9556548110
C        2.9950602791   -1.8115099913    1.9401908726
C       -0.2369224808    0.0271413984    2.6549025941
C       -0.8513270986    0.4306214033    6.2279283787
C       -1.1867909942    0.5947448508    4.7578701164
N        4.1295032376   -2.3959143055    2.6745405061
O        4.4040770007   -1.9135615959    3.7779079686
O       -1.1755800302    0.5456123169    2.0761698032
O        4.7540235288   -3.3085241648    2.1235327058
O       -0.1134698948   -0.0241124368    3.9961350599
H        1.9658323188   -1.2288704613   -1.2327704376
H        0.0811784506   -0.1744773035    0.0303467558
H        3.8407364235   -2.3137295667    0.0283503509
H        2.0049469765   -1.1786238457    3.7449584081
H       -0.7775368638   -0.6268918032    6.4977294203
H        0.0971467158    0.9185788806    6.4704118536
H       -1.6390010358    0.8870056195    6.8358024654
H       -1.2572284905    1.6454307797    4.4638337313
H       -2.1270477111    0.1053627973    4.4899456582
23   
Generated by ForceBalance from scan.xyz: Frame 23 of 24
C        1.9508059833   -1.2371508589   -0.1463967324
C        0.9009371513   -0.6389568271    0.5527915342
C        3.0114252895   -1.8261401108    0.5445578682
C        1.9691933865   -1.1904854434    2.6612586132
C        0.9063677668   -0.6165463876    1.9554503370
C        2.9969980036   -1.7936158711    1.9402706566
C       -0.2412643040    0.0382867973    2.6555066285
C       -0.8489937350    0.4500242866    6.2286825670
C       -1.1876549127    0.6108058067    4.7589697515
N        4.1256274659   -2.3893104835    2.6782924662
O        4.2401983452   -2.1081756136    3.8754562504
O       -1.1809579661    0.5542671390    2.0761013119
O        4.8974426193   -3.1214404311    2.0499884007
O       -0.1151557151   -0.0085481718    3.9965334244
H        1.9454028798   -1.2462686369   -1.2322296928
H        0.0670352428   -0.1808560877    0.0302828841
H        3.8357942437   -2.3040464584    0.0278737899
H        1.9992913814   -1.1719250628    3.7431314404
H       -0.7733372622   -0.6068636762    6.5003475023
H        0.0994872551    0.9394250782    6.4682120383
H       -1.6358893533    0.9067640145    6.8372925590
H       -1.2598718778    1.6607831041    4.4628156424
H       -2.1279048138    0.1198061226    4.4939953810
23   
Generated by ForceBalance from scan.xyz: Frame 24 of 24
C        2.1040321947   -0.9744809060   -0.1377805084
C        1.0169036132   -0.4433137401    0.5585852233
C        3.1413737984   -1.6042858816    0.5523489411
C        1.9897008791   -1.1660370321    2.6618844338
C        0.9574999759   -0.5377891440    1.9569397851
C        3.0633648587   -1.6881410682    1.9440985643
C       -0.2287826009    0.0474695635    2.6542091024
C       -1.0023351111    0.1581020430    6.2172117136
C       -1.2769203362    0.4355930001    4.7515331584
N        4.1547900399   -2.3517344555    2.6821886589
O        4.0618295746   -2.4127145270    3.9121590728
O       -1.1482760316    0.6002985317    2.0763498398
O        5.0973625519   -2.8067969305    2.0258168760
O       -0.1615185631   -0.1058864762    3.9914413711
H        2.1459973807   -0.8990637801   -1.2202405687
H        0.2021968913    0.0492848099    0.0371483947
H        3.9971782583   -2.0255012219    0.0378510889
H        1.9630116942   -1.2492510149    3.7406315765
H       -0.9206850209   -0.9165620442    6.4041495638
H       -0.0742557571    0.6386808296    6.5400511922
H       -1.8237212004    0.5520939784    6.8241034891
H       -1.3524326875    1.5054541709    4.5392393636
H       -2.1963238597   -0.0433247423    4.4040853405
