25   
Generated by ForceBalance from scan.xyz: Frame 1 of 24
C        1.3630908574   -1.0686080321   -0.4352119185
C        0.3413678387   -0.5459624468    0.3573264253
C        2.6487327978   -1.2646316767    0.0677661949
C        1.8959520882   -0.3959469851    2.2215644226
C        0.5951259218   -0.1881324197    1.7016567938
C        2.8887335065   -0.9268809057    1.4024903234
C        4.6369589876   -1.1557110478    3.1013623656
C       -1.7798253121    0.2975215237    2.0518073514
C       -0.1708538328    0.4517422174    3.9416136785
N        6.0053263747   -1.2829075082    3.1108163244
N       -0.3983536927    0.3672251097    2.5044815606
O        3.9450495083   -1.0578371422    4.0980101998
O        4.2164808596   -1.1275723731    1.8005424276
H        1.1485334233   -1.3319654177   -1.4677844521
H       -0.6434437295   -0.4195179258   -0.0749099627
H        3.4506344577   -1.6695887523   -0.5406128007
H        2.1306086278   -0.1694512068    3.2475644561
H       -2.4241265253    0.7686751176    2.7958771303
H       -2.1273013509   -0.7365043152    1.8979408412
H       -1.9121187524    0.8461536790    1.1133822272
H       -1.0454471772    0.9012667598    4.4147206182
H        0.6869511808    1.0938872883    4.1645057879
H        0.0089908284   -0.5312835319    4.4031203863
H        6.4058730615   -1.5563055035    3.9974801326
H        6.4608118843   -1.6128609673    2.2702701647
25   
Generated by ForceBalance from scan.xyz: Frame 2 of 24
C        1.9453579579   -0.9428490122   -0.1027389367
C        0.9101048624   -0.3030164871    0.5777599201
C        2.8845656079   -1.7260624106    0.5692989885
C        1.7425120523   -1.2205027018    2.6663347382
C        0.7951221458   -0.4220708714    1.9828768983
C        2.7547077629   -1.8551156208    1.9529653007
C        3.5550267391   -3.3301522903    3.7080374643
C       -1.3274653705    0.7981123768    1.9424172155
C       -0.4671168571   -0.1619264581    4.0676516752
N        4.7553451643   -3.8571134727    4.1199175879
N       -0.2115879679    0.2344084985    2.6881071332
O        2.4952887772   -3.4775591475    4.2858436186
O        3.7690897525   -2.5995784141    2.5685467128
H        2.0163248747   -0.8317070411   -1.1817088841
H        0.1984489899    0.2849537022    0.0116261034
H        3.6938967806   -2.2294159963    0.0507851379
H        1.6817595216   -1.3689839629    3.7323030185
H       -2.0204744479    1.2715001508    2.6398889801
H       -1.8809589162    0.0416718050    1.3634444587
H       -0.9826819536    1.5739200066    1.2510578686
H       -1.2999556597    0.4249319727    4.4584275850
H        0.4017045420    0.0444850370    4.7009057946
H       -0.7158595170   -1.2295963122    4.1646112423
H        4.6865338236   -4.6081785852    4.7927510036
H        5.5110557840   -3.9008524177    3.4489686561
25   
Generated by ForceBalance from scan.xyz: Frame 3 of 24
C        1.9425902776   -0.9730083652   -0.0904921669
C        0.9042116192   -0.3331115345    0.5845419161
C        2.9084319087   -1.7166961153    0.5910850891
C        1.7847462084   -1.1625289272    2.6860499523
C        0.8084670742   -0.4087254349    1.9948957462
C        2.7994062170   -1.7972212969    1.9782518966
C        3.5276059458   -3.3966383267    3.6221105497
C       -1.3422268212    0.7607011875    1.9422261456
C       -0.4332444279   -0.1111463368    4.0857572387
N        4.7032204677   -3.8773278066    4.1461958509
N       -0.2048325843    0.2465926402    2.6913367904
O        2.4145619156   -3.7082575543    3.9967235312
O        3.8256291187   -2.4887941878    2.6361181494
H        1.9941264181   -0.8950550791   -1.1734403136
H        0.1725800823    0.2213509661    0.0099905178
H        3.7193338851   -2.2221742461    0.0770040484
H        1.7480983939   -1.2789200431    3.7589141921
H       -2.0380692921    1.2394117571    2.6332083956
H       -1.8843356635   -0.0261122602    1.3938972668
H       -1.0238368797    1.5224033821    1.2230710095
H       -1.2760100618    0.4665846374    4.4687224484
H        0.4377740507    0.1385046924    4.7005289042
H       -0.6532171948   -1.1811301285    4.2198664811
H        4.6156930785   -4.7221577811    4.6939941503
H        5.5474720095   -3.7624958366    3.6008697183
25   
Generated by ForceBalance from scan.xyz: Frame 4 of 24
C        1.9337368870   -0.9972041051   -0.0631263816
C        0.8914155902   -0.3518956987    0.6001625914
C        2.9185545778   -1.7001353888    0.6362430858
C        1.8032495754   -1.0905712536    2.7182260518
C        0.8057168779   -0.3797124592    2.0134133428
C        2.8246778372   -1.7283225996    2.0248451536
C        3.5144278457   -3.4533343557    3.5212734963
C       -1.3716574710    0.7371649927    1.9355426295
C       -0.4293884632   -0.0383752493    4.1003683395
N        4.6493594357   -3.9169650742    4.1419954185
N       -0.2161703920    0.2793852150    2.6940355296
O        2.3947192228   -3.8953761872    3.6805042897
O        3.8483454120   -2.3828282240    2.7264288192
H        1.9727574306   -0.9572459392   -1.1486856040
H        0.1453747064    0.1693469272    0.0131160171
H        3.7313001381   -2.2128098135    0.1323500888
H        1.7838584928   -1.1737367426    3.7960870983
H       -2.0741035946    1.2238526780    2.6141575315
H       -1.8976903552   -0.0827031736    1.4211479773
H       -1.0774492303    1.4793897906    1.1864789120
H       -1.2788572986    0.5372302325    4.4715681982
H        0.4415509245    0.2449992935    4.7004526974
H       -0.6313466004   -1.1071811565    4.2692480722
H        4.5704180332   -4.8390454502    4.5482847660
H        5.5437101801   -3.6603601935    3.7449654568
25   
Generated by ForceBalance from scan.xyz: Frame 5 of 24
C        1.9308555871   -1.0472115538   -0.0153887265
C        0.8829202620   -0.3879981592    0.6250312433
C        2.9219363152   -1.7173016684    0.7073087999
C        1.7961798501   -1.0497988219    2.7665966556
C        0.7950772663   -0.3679844628    2.0383382410
C        2.8241436965   -1.6991238458    2.0948883442
C        3.5436516878   -3.5337734508    3.4162316819
C       -1.3905960755    0.7298667264    1.9200398865
C       -0.4428783121    0.0406312949    4.1107992755
N        4.6335638356   -3.9652344887    4.1340844129
N       -0.2315067829    0.3084135633    2.6942703519
O        2.4788830254   -4.1108934002    3.3332559504
O        3.8383991387   -2.3195490425    2.8426850161
H        1.9695110091   -1.0436333489   -1.1016766891
H        0.1338509194    0.1075551565    0.0198088520
H        3.7383965551   -2.2409031537    0.2208358387
H        1.7826068040   -1.0975803458    3.8476476709
H       -2.0966817092    1.2351949043    2.5810416454
H       -1.9101657718   -0.1120262629    1.4357250891
H       -1.1019862206    1.4469378999    1.1448210402
H       -1.2906055678    0.6304553446    4.4632125781
H        0.4297618876    0.3434208232    4.6987349359
H       -0.6471081003   -1.0212722657    4.3177170659
H        4.6212420709   -4.9440952234    4.3854521664
H        5.5326161695   -3.5541876231    3.9191517129
25   
Generated by ForceBalance from scan.xyz: Frame 6 of 24
C        1.9178252967   -1.0998653215    0.0275096632
C        0.8679584755   -0.4181530671    0.6414068955
C        2.9032855195   -1.7493541204    0.7753666348
C        1.7633110844   -1.0221864031    2.8064989350
C        0.7706642516   -0.3551991390    2.0524536194
C        2.7947587940   -1.6916285086    2.1609859330
C        3.6052028736   -3.6049005177    3.2958745643
C       -1.4083333265    0.7493893148    1.8868448091
C       -0.4791957773    0.1218443272    4.1030595380
N        4.6503473668   -4.0135371673    4.0896187861
N       -0.2560143403    0.3467549664    2.6811564939
O        2.6491705753   -4.2829876768    2.9806131385
O        3.7918627841   -2.2867503610    2.9521868983
H        1.9625645291   -1.1291043881   -1.0581507431
H        0.1250056570    0.0619492909    0.0165290341
H        3.7195045076   -2.2906903272    0.3084141083
H        1.7466111473   -1.0383382980    3.8887695658
H       -2.1163198116    1.2776190033    2.5276019441
H       -1.9284837258   -0.1045936809    1.4249014615
H       -1.1113242632    1.4412659692    1.0921895086
H       -1.3205478788    0.7329682592    4.4338517373
H        0.3941908689    0.4289139344    4.6874912582
H       -0.6998288830   -0.9309705390    4.3389427575
H        4.7442583081   -5.0144412039    4.1938390533
H        5.5025151636   -3.4689182903    4.0652131164
25   
Generated by ForceBalance from scan.xyz: Frame 7 of 24
C        1.9001102764   -1.1579710252    0.0738126031
C        0.8557944426   -0.4471424468    0.6646950598
C        2.8697805613   -1.8067040746    0.8415736891
C        1.7193487896   -1.0266290874    2.8484383078
C        0.7466711971   -0.3545072983    2.0727043342
C        2.7470433908   -1.7231277696    2.2251916504
C        3.7053821070   -3.6731463428    3.1795125003
C       -1.4085239890    0.7894307572    1.8657034895
C       -0.5103553753    0.1913741156    4.1025007482
N        4.6890600511   -4.0510903295    4.0617433611
N       -0.2715564011    0.3798966234    2.6782619380
O        2.9237215785   -4.4208230238    2.6290242566
O        3.7195032058   -2.3036792254    3.0553672162
H        1.9536365828   -1.2096038252   -1.0105982047
H        0.1269164305    0.0328854665    0.0234192785
H        3.6778015235   -2.3721595288    0.3900752319
H        1.6948924459   -1.0215895020    3.9307475474
H       -2.1107882186    1.3455110947    2.4890016940
H       -1.9424378270   -0.0631395211    1.4170010500
H       -1.0904471192    1.4580342918    1.0593871440
H       -1.3401953477    0.8282657978    4.4132841196
H        0.3653592316    0.4913817340    4.6871326720
H       -0.7568840751   -0.8507353147    4.3600793781
H        4.9306988484   -5.0322080729    4.0418996522
H        5.4344508039   -3.3934348849    4.2492794088
25   
Generated by ForceBalance from scan.xyz: Frame 8 of 24
C        1.8749671932   -1.2099926804    0.1132256055
C        0.8433480831   -0.4652504446    0.6845955282
C        2.8206933937   -1.8772844223    0.8946200003
C        1.6692474225   -1.0489643627    2.8811356202
C        0.7236647508   -0.3567299317    2.0901845745
C        2.6866011960   -1.7791836585    2.2773327514
C        3.8229736873   -3.7178718378    3.0853880095
C       -1.3964712949    0.8447721513    1.8515525239
C       -0.5384495939    0.2417487762    4.1022800285
N        4.7481246076   -4.0718181820    4.0376220817
N       -0.2794686186    0.4117966089    2.6795009530
O        3.2466838791   -4.4860667061    2.3431825213
O        3.6246984316   -2.3583651386    3.1446292054
H        1.9386237784   -1.2741114593   -0.9699901354
H        0.1345327269    0.0278784890    0.0308942317
H        3.6127543511   -2.4694033434    0.4514881807
H        1.6348623795   -1.0323514064    3.9630148981
H       -2.0897401294    1.4252737640    2.4625760128
H       -1.9488639461    0.0031493810    1.4044427431
H       -1.0519936841    1.4972024017    1.0428357522
H       -1.3517611407    0.9058382405    4.3996428361
H        0.3398590598    0.5195799200    4.6939176843
H       -0.8192317833   -0.7904070623    4.3655100888
H        5.1484338739   -4.9932984184    3.9283290127
H        5.3452217031   -3.3463718405    4.4121495852
25   
Generated by ForceBalance from scan.xyz: Frame 9 of 24
C        1.7171409732   -1.1369037956   -0.0388041949
C        0.7227855549   -0.3714785339    0.5687105754
C        2.6612652490   -1.8507298547    0.7036837152
C        1.5829584927   -1.0226987205    2.7324687608
C        0.6415648337   -0.2868992373    1.9786744550
C        2.5645480979   -1.7740848635    2.0921896791
C        3.9009393509   -3.6760742156    2.7242837367
C       -1.4472506330    0.9779893707    1.8144721072
C       -0.5550753722    0.3082618588    4.0317029512
N        4.7964870038   -4.0272003269    3.7053130653
N       -0.3225228773    0.5012025500    2.6073224432
O        3.5142674945   -4.4065860776    1.8348839987
O        3.4860605400   -2.3863029431    2.9521206401
H        1.7539665012   -1.1826745263   -1.1242364254
H        0.0143555401    0.1551552150   -0.0587316089
H        3.4183033305   -2.4576047495    0.2245882857
H        1.5753157427   -1.0253119976    3.8149811038
H       -2.1065667250    1.5707300324    2.4508706335
H       -2.0362318625    0.1593168905    1.3712994880
H       -1.1043922085    1.6307240037    1.0054762264
H       -1.3382172629    0.9927224469    4.3621757498
H        0.3452854736    0.5431908823    4.6084726700
H       -0.8649114109   -0.7195286980    4.2794689672
H        5.3419713339   -4.8563944017    3.5153603932
H        5.2399743352   -3.2872146092    4.2331299640
25   
Generated by ForceBalance from scan.xyz: Frame 10 of 24
C        1.6791636439   -1.1737109241   -0.0329424007
C        0.7071005211   -0.3801674138    0.5723451906
C        2.6005368595   -1.9233245623    0.7050025248
C        1.5419490320   -1.0670515955    2.7327512673
C        0.6251591137   -0.2993786174    1.9827702585
C        2.5040571713   -1.8489502325    2.0947934152
C        4.0045800581   -3.6706180991    2.6735860665
C       -1.4261037781    1.0281174083    1.8234495686
C       -0.5524694453    0.3260252988    4.0374900308
N        4.8046286724   -4.0255827863    3.7330971015
N       -0.3152494188    0.5154766868    2.6135936034
O        3.8553065290   -4.3279504283    1.6628362791
O        3.3779789477   -2.4901836214    2.9816931252
H        1.7182485724   -1.2166178335   -1.1184727830
H        0.0173787283    0.1705307014   -0.0552210593
H        3.3357718907   -2.5499445908    0.2211511277
H        1.5315933027   -1.0732399448    3.8151655220
H       -2.0666128931    1.6384921898    2.4623996011
H       -2.0399360804    0.2288300204    1.3786170799
H       -1.0648385826    1.6726915393    1.0159845280
H       -1.3151596293    1.0321692319    4.3701951627
H        0.3548255507    0.5332065453    4.6141337526
H       -0.8918662849   -0.6929425651    4.2831967546
H        5.4853931337   -4.7461897142    3.5370151150
H        5.0601617051   -3.3100629586    4.4004872386
25   
Generated by ForceBalance from scan.xyz: Frame 11 of 24
C        1.6296296286   -1.2047219557   -0.0453399594
C        0.6823175747   -0.3886930903    0.5669746579
C        2.5385083826   -1.9807118288    0.6826744463
C        1.5150790168   -1.1007279594    2.7191178632
C        0.6122174234   -0.3097716167    1.9785500931
C        2.4545083020   -1.9072479163    2.0740876029
C        4.1052872408   -3.6249819488    2.6265420143
C       -1.4087191918    1.0632689378    1.8354190866
C       -0.5324065037    0.3442552083    4.0436166199
N        4.7708374401   -4.0457457688    3.7536685028
N       -0.3036360157    0.5263645301    2.6175405283
O        4.2108840826   -4.1387496796    1.5298505112
O        3.2891493121   -2.5821551079    2.9733923595
H        1.6613138369   -1.2460649884   -1.1312385166
H        0.0026001641    0.1809738878   -0.0545380294
H        3.2558411019   -2.6208118000    0.1922147768
H        1.5115987043   -1.1090907922    3.8015140783
H       -2.0303347722    1.6884314699    2.4787106989
H       -2.0438337124    0.2776647706    1.3961622767
H       -1.0394476753    1.6989428884    1.0245635932
H       -1.2755678867    1.0681942897    4.3822248534
H        0.3846456218    0.5310833443    4.6117940494
H       -0.8929737095   -0.6663460285    4.2939286600
H        5.5651801981   -4.6472754731    3.5849543707
H        4.8219165093   -3.4153738966    4.5427034197
25   
Generated by ForceBalance from scan.xyz: Frame 12 of 24
C        1.5714771192   -1.2341782442   -0.0714982687
C        0.6470437683   -0.3994354893    0.5495750800
C        2.4755764894   -2.0252305320    0.6469070131
C        1.4929996674   -1.1221951251    2.6934639655
C        0.5964690471   -0.3164213660    1.9619473341
C        2.4096689440   -1.9485309191    2.0393740891
C        4.1911638836   -3.5455459722    2.5714013687
C       -1.4015451392    1.0948847499    1.8435510554
C       -0.5038311362    0.3684992356    4.0403959693
N        4.7248077090   -4.0955934220    3.7136345906
N       -0.2950179132    0.5386876230    2.6100184519
O        4.5293643598   -3.8411156424    1.4414487205
O        3.2139017079   -2.6612785049    2.9371798355
H        1.5907144812   -1.2774633564   -1.1576398980
H       -0.0287430690    0.1824173398   -0.0648964840
H        3.1843645877   -2.6690583646    0.1497652615
H        1.5005228604   -1.1294962278    3.7758509941
H       -2.0017490646    1.7324427929    2.4949672757
H       -2.0576463804    0.3205462531    1.4153473507
H       -1.0329124081    1.7224284622    1.0260942482
H       -1.2261662345    1.1093691711    4.3873728355
H        0.4263032925    0.5391410378    4.5922121350
H       -0.8810249246   -0.6331437755    4.3022201121
H        5.6074966042   -4.5713782989    3.5870566904
H        4.5785657662   -3.6119694440    4.5896580199
25   
Generated by ForceBalance from scan.xyz: Frame 13 of 24
C        1.5328196704   -1.2799486785   -0.0761192486
C        0.6253214546   -0.4262907987    0.5450557867
C        2.4310231198   -2.0760888233    0.6432454892
C        1.4783355377   -1.1409549472    2.6889944149
C        0.5874492674   -0.3289557964    1.9566911248
C        2.3765837608   -1.9863164271    2.0351786839
C        4.2733183588   -3.4363207119    2.5633609793
C       -1.3902431674    1.1107823542    1.8409488487
C       -0.4835101679    0.3945207738    4.0376092967
N        4.7112724514   -4.1461378214    3.6567782896
N       -0.2857002334    0.5456711931    2.6036121134
O        4.7927700116   -3.4674559414    1.4647620895
O        3.1556668480   -2.7342761543    2.9266459217
H        1.5435030026   -1.3322601798   -1.1619547384
H       -0.0464568245    0.1601448778   -0.0694551480
H        3.1354406818   -2.7247625573    0.1454063618
H        1.4931158218   -1.1396324492    3.7713663460
H       -1.9753539275    1.7636746660    2.4909009579
H       -2.0613809995    0.3421468137    1.4259439085
H       -1.0192370404    1.7246143918    1.0141859189
H       -1.1907989384    1.1504613156    4.3830727379
H        0.4544299444    0.5565932317    4.5786980816
H       -0.8739186543   -0.5980793221    4.3142442201
H        5.6556378362   -4.4995711814    3.5871854974
H        4.3874625892   -3.8612378941    4.5715484505
25   
Generated by ForceBalance from scan.xyz: Frame 14 of 24
C        1.5031351532   -1.3294670831   -0.0735159200
C        0.6143677288   -0.4531332385    0.5452226150
C        2.3824179795   -2.1392707790    0.6520796865
C        1.4541658122   -1.1725467294    2.6930292731
C        0.5787260016   -0.3464340576    1.9558617139
C        2.3316071713   -2.0392295074    2.0424785536
C        4.3208134393   -3.3242405100    2.5794004770
C       -1.3665738422    1.1358672278    1.8317772429
C       -0.4750341970    0.4137082026    4.0329056329
N        4.7383684993   -4.1698469248    3.5796243730
N       -0.2748627202    0.5509102888    2.5977959660
O        4.9427412130   -3.0855766982    1.5634423073
O        3.0870446511   -2.8301277147    2.9171435168
H        1.5114868046   -1.3873706888   -1.1590268286
H       -0.0449888505    0.1443330691   -0.0721316089
H        3.0755997009   -2.8047560059    0.1580227087
H        1.4706763939   -1.1650484501    3.7753569280
H       -1.9373284113    1.8051180729    2.4778296721
H       -2.0543090145    0.3797679699    1.4208714241
H       -0.9820422791    1.7367303596    1.0016366821
H       -1.1647616732    1.1877591394    4.3737328855
H        0.4666105406    0.5581731638    4.5724823844
H       -0.8877307825   -0.5679056443    4.3163995421
H        5.7240968455   -4.3930143333    3.5689018817
H        4.2868442341   -4.1002341932    4.4819730457
25   
Generated by ForceBalance from scan.xyz: Frame 15 of 24
C        2.0487832583   -0.8866356931    0.1709619754
C        0.8310191851   -0.4800535097    0.7143753343
C        3.1061671658   -1.3277485331    0.9707855413
C        1.6957936608   -0.9352142316    2.9248212877
C        0.6213159181   -0.5075519491    2.1134655420
C        2.8976914994   -1.3376902820    2.3489718076
C        5.1725424425   -1.4697827780    3.1294061801
C       -1.5556199865    0.5824344158    1.8459743527
C       -0.6578791013    0.1049037998    4.1101322002
N        5.8839108025   -2.0715627989    4.1389227576
N       -0.6007305306   -0.1388978233    2.6758613107
O        5.6388013344   -0.7209259581    2.2950717487
O        3.8500291103   -1.8187370357    3.2573649147
H        2.1793733891   -0.8539602410   -0.9077215814
H        0.0495563677   -0.1418923407    0.0452412785
H        4.0551232033   -1.6235036957    0.5430492216
H        1.6217703024   -0.9669643860    4.0043496703
H       -2.4483484065    0.7990140362    2.4351786462
H       -1.8698320014   -0.0279723862    0.9934132133
H       -1.1549519222    1.5334080200    1.4605199685
H       -1.6754187588    0.3882215090    4.3845903223
H        0.0251985250    0.9056037357    4.4356947126
H       -0.4121445745   -0.8035709540    4.6695306469
H        6.8868416400   -2.0789879565    4.0156627866
H        5.4651295706   -2.8599185118    4.6142050116
25   
Generated by ForceBalance from scan.xyz: Frame 16 of 24
C        2.0287447912   -0.9406367084    0.1411444019
C        0.8290866942   -0.4983090367    0.6983444674
C        3.0725624577   -1.4259239267    0.9318621705
C        1.6916000813   -1.0046801272    2.9000621383
C        0.6272820236   -0.5322520475    2.0983268252
C        2.8723342055   -1.4410608919    2.3099652978
C        5.0902488784   -1.4091484708    3.1944854153
C       -1.5135968079    0.6308648324    1.8532800540
C       -0.6184510491    0.1047138940    4.1085278202
N        5.8536089104   -2.0542018721    4.1370843332
N       -0.5777015413   -0.1275740229    2.6715881429
O        5.4534985935   -0.4711754331    2.5151568282
O        3.8351754824   -1.9710304509    3.1816427975
H        2.1526352606   -0.9007425094   -0.9380105405
H        0.0549508298   -0.1270628697    0.0381975305
H        4.0110385946   -1.7541614976    0.5007430974
H        1.6235881312   -1.0437325379    3.9797868350
H       -2.3946181870    0.8729074447    2.4500828424
H       -1.8535738477    0.0372247656    0.9986933415
H       -1.0839256901    1.5706225989    1.4716720563
H       -1.6240507272    0.4203874165    4.3914426723
H        0.0936085485    0.8783524220    4.4370676623
H       -0.4012006015   -0.8168429407    4.6582138634
H        6.8489331407   -1.8924649123    4.0709523744
H        5.5492195054   -2.9654713577    4.4531889920
25   
Generated by ForceBalance from scan.xyz: Frame 17 of 24
C        1.9934874581   -0.9807541142    0.0888629315
C        0.8151571627   -0.5114488984    0.6688182218
C        3.0370701171   -1.4911798277    0.8640817883
C        1.7009701708   -1.0448279184    2.8563459003
C        0.6362356561   -0.5433999601    2.0723533946
C        2.8596822343   -1.5054625425    2.2442869972
C        4.9893618125   -1.3231795395    3.2764672625
C       -1.4789874785    0.6738264323    1.8657027010
C       -0.5605947253    0.1149483412    4.1046623939
N        5.8109474544   -2.0016607027    4.1446160406
N       -0.5477217593   -0.1092948523    2.6658107842
O        5.2161303921   -0.2325736090    2.7946100001
O        3.8450182804   -2.0594940442    3.0776173522
H        2.0993864863   -0.9416678679   -0.9922275499
H        0.0385478774   -0.1202694065    0.0232198105
H        3.9611631332   -1.8466459259    0.4212366874
H        1.6498368239   -1.0836590695    3.9370474736
H       -2.3419187355    0.9382156760    2.4791486776
H       -1.8503949386    0.0901601189    1.0172671949
H       -1.0321038415    1.6024030910    1.4767935107
H       -1.5528472736    0.4560042407    4.4045839046
H        0.1771455198    0.8668150140    4.4265289860
H       -0.3602596746   -0.8157039507    4.6454398057
H        6.7686246729   -1.6797997517    4.1703738845
H        5.6513852216   -2.9927509613    4.2695125126
25   
Generated by ForceBalance from scan.xyz: Frame 18 of 24
C        1.9624921377   -1.0230072201    0.0457133362
C        0.8044386985   -0.5349199093    0.6494334046
C        3.0157024790   -1.5451022602    0.8009930153
C        1.7260459320   -1.0794395603    2.8192961494
C        0.6544630309   -0.5602396581    2.0570389540
C        2.8648504520   -1.5567963628    2.1837889213
C        4.8765052233   -1.2748767234    3.3995554572
C       -1.4425361527    0.6934337789    1.8903897447
C       -0.4857676952    0.1271921582    4.1119644862
N        5.7561753330   -1.9781909619    4.1877178459
N       -0.5083279025   -0.1029531316    2.6737807772
O        4.9446062179   -0.0897646596    3.1464418747
O        3.8768824406   -2.1201421047    2.9794364340
H        2.0455204429   -0.9884445218   -1.0375311391
H        0.0203828661   -0.1330623028    0.0195585513
H        3.9251629731   -1.9191611723    0.3424629388
H        1.6963716226   -1.1131964649    3.9008925135
H       -2.2874649564    0.9750766852    2.5209432358
H       -1.8421917691    0.1132570545    1.0524499987
H       -0.9878525421    1.6126106348    1.4884721825
H       -1.4634785706    0.4919609024    4.4309919060
H        0.2756429176    0.8631132992    4.4142720666
H       -0.2953128976   -0.8057027171    4.6524937775
H        6.6473909737   -1.5274612241    4.3428875551
H        5.7552411451   -2.9869325755    4.1111306620
25   
Generated by ForceBalance from scan.xyz: Frame 19 of 24
C        1.9206730151   -1.0581642953   -0.0127524354
C        0.7819604872   -0.5604963460    0.6184756981
C        2.9955869954   -1.5726719744    0.7177295862
C        1.7638125642   -1.0868207539    2.7668020556
C        0.6737103996   -0.5701474338    2.0305159625
C        2.8845133094   -1.5715288992    2.1042953491
C        4.7756868340   -1.2630913113    3.5031590162
C       -1.4190788688    0.6956257994    1.9126799447
C       -0.4036001758    0.1410480600    4.1112149546
N        5.7002612371   -1.9875020323    4.2172863146
N       -0.4684707777   -0.1007914912    2.6760300229
O        4.6936654097   -0.0522002947    3.4762790313
O        3.9290449839   -2.1326904101    2.8573567395
H        1.9722996767   -1.0366176367   -1.0982843682
H       -0.0192755950   -0.1632870515    0.0075601772
H        3.8906158591   -1.9554808599    0.2383338700
H        1.7635223900   -1.1051134238    3.8488263492
H       -2.2432905040    0.9893742117    2.5647662300
H       -1.8473014069    0.1114069988    1.0917983621
H       -0.9693630712    1.6077528905    1.4896338001
H       -1.3696880859    0.5147083801    4.4544971546
H        0.3710470059    0.8738606089    4.3854573311
H       -0.2042005565   -0.7887663596    4.6537878746
H        6.5115180795   -1.4665037486    4.5205042223
H        5.8423333445   -2.9553077303    3.9590996075
25   
Generated by ForceBalance from scan.xyz: Frame 20 of 24
C        1.8804041535   -1.0874650163   -0.0586573495
C        0.7568371635   -0.5891768345    0.5986648829
C        2.9811581008   -1.5792416645    0.6480749332
C        1.8057598429   -1.0759823517    2.7266958896
C        0.6922585509   -0.5778265541    2.0132921242
C        2.9122259014   -1.5585473142    2.0382756076
C        4.6931011641   -1.2984308785    3.6045446409
C       -1.4163428067    0.6644653123    1.9388637126
C       -0.3209320231    0.1689264802    4.1138706294
N        5.6735348034   -2.0422933840    4.2159197362
N       -0.4322984287   -0.1050871649    2.6867867308
O        4.4601280847   -0.1264807803    3.8208710131
O        3.9925812289   -2.1095011014    2.7438358003
H        1.9000282116   -1.0837495535   -1.1454491257
H       -0.0656212924   -0.2075687416    0.0063506214
H        3.8648168240   -1.9634238755    0.1491458916
H        1.8332350567   -1.0728098297    3.8076066466
H       -2.2236723515    0.9605072095    2.6107286603
H       -1.8622826724    0.0590097338    1.1431606945
H       -0.9923376082    1.5738730845    1.4842447462
H       -1.2734505490    0.5571243244    4.4781808258
H        0.4666750049    0.9019591561    4.3461947843
H       -0.1100946928   -0.7493197174    4.6718291219
H        6.3967676928   -1.5052796430    4.6742526626
H        5.9486225931   -2.9122404485    3.7790063178
25   
Generated by ForceBalance from scan.xyz: Frame 21 of 24
C        1.8677834197   -1.1053570834   -0.0864990025
C        0.7503288156   -0.6083137376    0.5825531790
C        2.9928699467   -1.5582452388    0.6059731189
C        1.8585849105   -1.0190727256    2.6995633231
C        0.7197563447   -0.5623241393    1.9970969744
C        2.9597600668   -1.4971948080    1.9980107096
C        4.6490507085   -1.3428419100    3.7046210975
C       -1.4191763273    0.6281875090    1.9427854539
C       -0.2614666838    0.2137015591    4.1036353725
N        5.6696962064   -2.1045565297    4.2202497640
N       -0.3979247207   -0.0957380255    2.6858263380
O        4.3023209839   -0.2578236335    4.1274812364
O        4.0738728334   -2.0273990993    2.6626404531
H        1.8624169934   -1.1326319137   -1.1731130652
H       -0.0925506072   -0.2574649838    0.0000764449
H        3.8700325142   -1.9440094509    0.0969186353
H        1.9047214083   -0.9831852538    3.7777669323
H       -2.2173238521    0.9221361989    2.6264281407
H       -1.8686626578   -0.0094738347    1.1746027884
H       -1.0300837613    1.5353471891    1.4536160766
H       -1.2127097926    0.5947023050    4.4786868566
H        0.5184227740    0.9644690465    4.3020332015
H       -0.0230215808   -0.6871230469    4.6786146051
H        6.3180455337   -1.6078145132    4.8155432391
H        6.0430843548   -2.8486012467    3.6455301510
25   
Generated by ForceBalance from scan.xyz: Frame 22 of 24
C        1.8579040237   -1.1215801209   -0.1037233805
C        0.7415223790   -0.6278181117    0.5700706502
C        3.0007681833   -1.5305758118    0.5845378150
C        1.8952216705   -0.9511621923    2.6828750544
C        0.7355044776   -0.5428864997    1.9824317175
C        2.9958323748   -1.4263832312    1.9763982266
C        4.6153576861   -1.4075775348    3.7861483446
C       -1.4331626606    0.5938178385    1.9342548878
C       -0.2315318235    0.2624729879    4.0859491183
N        5.6917951724   -2.1599467034    4.1900890563
N       -0.3805528240   -0.0828254770    2.6776628832
O        4.1510354339   -0.4688550554    4.4041462065
O        4.1490717586   -1.9167070504    2.6024009966
H        1.8364486164   -1.1827886116   -1.1887976651
H       -0.1184715117   -0.3117663864   -0.0071643051
H        3.8761878958   -1.9159184074    0.0722982732
H        1.9541455929   -0.8774146463    3.7566864416
H       -2.2254537095    0.8883440934    2.6244155588
H       -1.8809231597   -0.0765168457    1.1932523247
H       -1.0759020120    1.4955209841    1.4117862170
H       -1.1872685658    0.6262666653    4.4666733216
H        0.5303995576    1.0382784428    4.2556485832
H        0.0407043160   -0.6175806005    4.6775141392
H        6.2658883669   -1.7385636880    4.9072654568
H        6.1559339060   -2.7359697959    3.5002336040
25   
Generated by ForceBalance from scan.xyz: Frame 23 of 24
C        1.8410333212   -1.1424866817   -0.0991420518
C        0.7228764093   -0.6476387537    0.5718049273
C        2.9972842672   -1.5141865862    0.5857904140
C        1.9103448929   -0.8873294600    2.6802517811
C        0.7346265676   -0.5224953995    1.9802267587
C        3.0097003577   -1.3705091675    1.9758622814
C        4.5732594703   -1.5058356228    3.8542647700
C       -1.4558652747    0.5703990892    1.9298614857
C       -0.2197499569    0.3260228858    4.0735569042
N        5.7321274822   -2.1880128915    4.1380315282
N       -0.3803348190   -0.0635296092    2.6779450827
O        3.9860720132   -0.7852956411    4.6400407504
O        4.1995653675   -1.8049572508    2.5732386236
H        1.8091865286   -1.2357765228   -1.1816734345
H       -0.1490136873   -0.3631480126   -0.0039852955
H        3.8720766826   -1.9010561221    0.0736734507
H        1.9798631083   -0.7804961433    3.7493217318
H       -2.2458341467    0.8672373343    2.6216920436
H       -1.8981113473   -0.1293031458    1.2131336845
H       -1.1241599170    1.4646125176    1.3783222648
H       -1.1779998137    0.6803832687    4.4568634383
H        0.5267871626    1.1232619459    4.2096875869
H        0.0809012465   -0.5294948713    4.6865560913
H        6.2354823062   -1.8612849779    4.9512555809
H        6.2767046812   -2.5462582856    3.3646997589
25   
Generated by ForceBalance from scan.xyz: Frame 24 of 24
C        1.3608456334   -1.0393123012   -0.4432298127
C        0.3385184851   -0.5233073528    0.3531978392
C        2.6385735625   -1.2649938508    0.0662648510
C        1.8756288973   -0.4495480749    2.2376496571
C        0.5842511598   -0.2058309720    1.7087448816
C        2.8713836554   -0.9652360939    1.4120250875
C        4.6751941320   -1.0403697768    3.0772257454
C       -1.7851815411    0.3118253050    2.0474440119
C       -0.1932861856    0.3955019685    3.9564158228
N        6.0173529486   -1.3360940143    3.0685571593
N       -0.4077519397    0.3456031015    2.5158530081
O        4.0654734080   -0.6404655743    4.0524676026
O        4.1832470835   -1.2401022325    1.8183197691
H        1.1530850387   -1.2729452220   -1.4843243555
H       -0.6398052831   -0.3704525549   -0.0851781609
H        3.4403828016   -1.6661928118   -0.5446663759
H        2.1065601791   -0.2455549294    3.2687383731
H       -2.4288033599    0.7775700326    2.7954982660
H       -2.1498220975   -0.7118085189    1.8660336218
H       -1.8972636057    0.8841216684    1.1206012387
H       -1.0619839108    0.8559931274    4.4299111625
H        0.6774561473    1.0115503211    4.2009372959
H       -0.0427022502   -0.6010174451    4.3997330767
H        6.4366100695   -1.4628275506    3.9792788410
H        6.3811629457   -1.8894757237    2.3043109146
