29   
Generated by ForceBalance from scan.xyz: Frame 1 of 24
C       -3.0280154436   -1.4776141901    1.8216009734
C       -0.6143533246   -1.3042727174    1.8514042538
C       -2.9694391692   -2.7045926002    2.4789720859
C       -0.5499503988   -2.5320271814    2.5077504563
C       -1.8600757291   -0.7792035756    1.5047065867
C       -1.7166917443   -3.2398352915    2.8187101970
C       -2.4872334808   -5.3980613283    3.6321301510
C       -2.7969111209    1.5059991756    1.6246686630
C       -2.6746997936    0.3252463767   -0.5505950792
C       -0.6512209486    1.1812508920    0.5105431115
N       -2.0079988514   -6.3640902828    4.4485920737
N       -1.9880104232    0.5393842899    0.7834997943
O       -3.5743686505   -5.3667727116    3.0970598867
O       -1.5028822807   -4.4103983586    3.4999403765
H       -4.0106258048   -1.0920477209    1.5693003549
H        0.3164252872   -0.7981063019    1.6307599983
H       -3.8798603577   -3.2384644797    2.7089700687
H        0.4108043544   -2.9541097741    2.7839624720
H       -2.8616989649    2.4588818282    1.0981563444
H       -3.7937177030    1.1014109840    1.7822579546
H       -2.2935232498    1.6294369182    2.5828563574
H       -2.7410509693    1.2830440624   -1.0679705378
H       -2.0842545642   -0.3844735070   -1.1288877483
H       -3.6711966325   -0.0762943056   -0.3833727448
H       -0.8302786707    2.1221491831   -0.0086990772
H       -0.1429493083    1.3755930132    1.4535497655
H       -0.0553147924    0.5239453710   -0.1204258312
H       -2.5683487212   -7.1960216473    4.5739079026
H       -1.0527696110   -6.3489375481    4.7784571602
29   
Generated by ForceBalance from scan.xyz: Frame 2 of 24
C       -3.0290324000   -1.4540115835    1.8966085746
C       -0.6122540318   -1.2939038486    1.8772540211
C       -2.9615838700   -2.6640873659    2.5817025187
C       -0.5415585988   -2.5085312252    2.5600923958
C       -1.8612143063   -0.7719257249    1.5406590996
C       -1.7058544586   -3.1984976459    2.9068574748
C       -2.4198499655   -5.4200924379    3.5124916770
C       -2.7850915981    1.5210810111    1.6140571931
C       -2.7064643574    0.2794936486   -0.5294069327
C       -0.6610162213    1.1552117640    0.4718885573
N       -2.0585293916   -6.3772683829    4.3964592649
N       -1.9955210694    0.5274705259    0.7861771812
O       -3.3553793379   -5.4425641933    2.7427299685
O       -1.5172774456   -4.3516767247    3.6260289096
H       -4.0135027073   -1.0669485436    1.6545491874
H        0.3163671412   -0.7980724134    1.6263616908
H       -3.8709140173   -3.1864306429    2.8445440043
H        0.4217684467   -2.9310976920    2.8264809655
H       -2.8546755584    2.4592386205    1.0623562344
H       -3.7809315166    1.1264101628    1.8001190225
H       -2.2643499705    1.6687066724    2.5594695016
H       -2.7764013952    1.2226649825   -1.0725193751
H       -2.1300767785   -0.4499718822   -1.0972007142
H       -3.7020620187   -0.1112720957   -0.3337281421
H       -0.8454870483    2.0826293134   -0.0692353808
H       -0.1347383386    1.3724981903    1.3998812004
H       -0.0797181232    0.4783027593   -0.1519165089
H       -2.5614314094   -7.2539053824    4.3787382332
H       -1.2071781837   -6.2993830061    4.9356979676
29   
Generated by ForceBalance from scan.xyz: Frame 3 of 24
C       -3.0423245484   -1.4277936255    1.9619441431
C       -0.6215991760   -1.2954733294    1.9081941377
C       -2.9736924029   -2.6172893439    2.6802928558
C       -0.5528368371   -2.4932399467    2.6235076393
C       -1.8693354376   -0.7703788029    1.5741534213
C       -1.7205157784   -3.1518841691    3.0074155090
C       -2.3394031921   -5.4205814187    3.4193226101
C       -2.7680607031    1.5332860870    1.5949380069
C       -2.7285011769    0.2322053283   -0.5145703971
C       -0.6622121084    1.1142258835    0.4374605927
N       -2.0748067915   -6.4044098818    4.3079361286
N       -1.9989706261    0.5090872291    0.7851380839
O       -3.1058225339   -5.4560004312    2.4816764661
O       -1.5722284924   -4.2935297029    3.7576691709
H       -4.0250846455   -1.0375213069    1.7185540504
H        0.3077934260   -0.8169973652    1.6282771580
H       -3.8828676706   -3.1268211875    2.9728741841
H        0.4092296136   -2.9212427388    2.8858688015
H       -2.8343391116    2.4567476785    1.0186342072
H       -3.7656887266    1.1547698324    1.8034835669
H       -2.2342828266    1.7010037312    2.5296947068
H       -2.7956167593    1.1608753391   -1.0824215044
H       -2.1664590995   -0.5184912759   -1.0689192675
H       -3.7254946642   -0.1427436701   -0.2965178919
H       -0.8444258262    2.0284907650   -0.1263265993
H       -0.1220317564    1.3511048978    1.3525842862
H       -0.0956400695    0.4149248176   -0.1750954934
H       -2.4877171010   -7.3126464107    4.1461063512
H       -1.3475830820   -6.3014444363    5.0024389774
29   
Generated by ForceBalance from scan.xyz: Frame 4 of 24
C       -3.0707573874   -1.3655000785    2.0260789086
C       -0.6469052985   -1.2906460180    1.9367443217
C       -3.0144334279   -2.5372334258    2.7732126804
C       -0.5937239149   -2.4719878385    2.6821038160
C       -1.8872314417   -0.7461465869    1.6071951697
C       -1.7704799510   -3.0879269002    3.1005965301
C       -2.2553787958   -5.3916984141    3.3365976714
C       -2.7346795935    1.5768756454    1.5717161114
C       -2.7504431255    0.2137786866   -0.4993515788
C       -0.6536299899    1.0779975000    0.4009657739
N       -2.0595506820   -6.4111430242    4.2022197723
N       -1.9986713024    0.5128640024    0.7828825940
O       -2.8415063220   -5.4188509517    2.2764062630
O       -1.6700351342   -4.2288564363    3.8648133261
H       -4.0474811043   -0.9613696780    1.7813408221
H        0.2881723737   -0.8409763118    1.6295316515
H       -3.9275359034   -3.0270275124    3.0909719223
H        0.3621406977   -2.9169578868    2.9389478899
H       -2.7882636226    2.4843402585    0.9693229384
H       -3.7375930104    1.2269950368    1.8035973611
H       -2.1852573399    1.7599663629    2.4944649809
H       -2.8011306196    1.1257088286   -1.0952804897
H       -2.2138938273   -0.5679087717   -1.0358531082
H       -3.7538132909   -0.1288431693   -0.2586019947
H       -0.8235205671    1.9804883097   -0.1851652290
H       -0.0956049692    1.3273984138    1.3019363374
H       -0.1114363470    0.3498493554   -0.1999082113
H       -2.3668734157   -7.3336147477    3.9267740896
H       -1.4861264149   -6.2974233102    5.0267841039
29   
Generated by ForceBalance from scan.xyz: Frame 5 of 24
C       -3.1144236234   -1.3229148611    2.0728959333
C       -0.6891560867   -1.3153596899    1.9598336212
C       -3.0779096537   -2.4826012188    2.8404529899
C       -0.6583578318   -2.4833667421    2.7271330268
C       -1.9183669358   -0.7446005275    1.6320859836
C       -1.8471733620   -3.0585359387    3.1664240533
C       -2.1383061105   -5.3885840434    3.2851905442
C       -2.7036429868    1.5996219748    1.5544146800
C       -2.7739953756    0.1935140757   -0.4870328992
C       -0.6470670415    1.0202225055    0.3771317794
N       -2.0352058412   -6.4193924597    4.1540815249
N       -2.0033807237    0.4997267177    0.7824404931
O       -2.4815129557   -5.4252281272    2.1234896890
O       -1.7942048663   -4.1970287840    3.9433603065
H       -4.0824817495   -0.8984891203    1.8281123059
H        0.2536530732   -0.8957970540    1.6343003089
H       -3.9978937532   -2.9479154874    3.1777712698
H        0.2882189254   -2.9490644207    2.9816634596
H       -2.7385384528    2.4949970472    0.9328944678
H       -3.7133682134    1.2817635863    1.8023393010
H       -2.1412143192    1.7878526203    2.4682605433
H       -2.8041996980    1.0932221181   -1.1025571814
H       -2.2639503996   -0.6145759600   -1.0101336984
H       -3.7845486108   -0.1152805639   -0.2310791020
H       -0.7982769879    1.9140245464   -0.2271314998
H       -0.0747085209    1.2742329637    1.2677694053
H       -0.1297885228    0.2650645053   -0.2122403003
H       -2.1856422738   -7.3544483298    3.8016664389
H       -1.6608965385   -6.2868638425    5.0835581125
29   
Generated by ForceBalance from scan.xyz: Frame 6 of 24
C       -3.1567619004   -1.2823989956    2.0944209433
C       -0.7344982951   -1.3481110207    1.9525851822
C       -3.1456527078   -2.4425003022    2.8638897259
C       -0.7286618962   -2.5117851663    2.7256247401
C       -1.9502231901   -0.7416811903    1.6365724203
C       -1.9296974515   -3.0546503455    3.1739822620
C       -1.9780942759   -5.4004634532    3.2541943983
C       -2.6666264418    1.6249705373    1.5563680628
C       -2.8012805143    0.2118542974   -0.4771998169
C       -0.6414999936    0.9799352815    0.3590168124
N       -1.9959663613   -6.4274002094    4.1337239798
N       -2.0079360010    0.5012364438    0.7821731423
O       -2.0176851771   -5.4556874971    2.0440625920
O       -1.9200360818   -4.1891150478    3.9608538663
H       -4.1144799079   -0.8290004330    1.8612887880
H        0.2163719926   -0.9569769533    1.6154090392
H       -4.0736415619   -2.8799066966    3.2174820401
H        0.2075471512   -3.0020505538    2.9718292606
H       -2.6816464589    2.5181336605    0.9308959145
H       -3.6825883951    1.3386631580    1.8168444712
H       -2.0887554421    1.8005808141    2.4630674754
H       -2.8116777205    1.1090532789   -1.0970168676
H       -2.3211566135   -0.6135259141   -1.0016286916
H       -3.8176567338   -0.0654122251   -0.2084331893
H       -0.7735060538    1.8753602024   -0.2473281433
H       -0.0516169353    1.2205904182    1.2418930575
H       -0.1535545763    0.2075200309   -0.2329772493
H       -1.9678943628   -7.3683874341    3.7665639959
H       -1.8839814059   -6.2712478980    5.1260087338
29   
Generated by ForceBalance from scan.xyz: Frame 7 of 24
C       -3.1361029309   -1.3995532641    1.9566024400
C       -0.7141968217   -1.3179832437    2.1029515994
C       -3.1457901033   -2.5443757754    2.7500962076
C       -0.7297999601   -2.4622515427    2.9024927859
C       -1.9182459553   -0.7940066036    1.6307578022
C       -1.9416427544   -3.0749740496    3.2157535099
C       -1.5494754900   -5.3840265277    3.4513849735
C       -2.7599756035    1.5218664791    1.4088227200
C       -2.5633663875    0.0698776747   -0.5915771920
C       -0.5700701846    0.9840051289    0.4784580939
N       -1.6496979255   -6.3791623021    4.3608561253
N       -1.9467284364    0.4284849306    0.7461926094
O       -1.1521421670   -5.4572846062    2.3089058907
O       -1.9770079285   -4.1815800754    4.0381004682
H       -4.0851226973   -1.0101659570    1.6031268305
H        0.2447589202   -0.8730840152    1.8719307174
H       -4.0810262375   -3.0317722351    3.0058648299
H        0.1992498569   -2.8850260290    3.2695548085
H       -2.7513391121    2.4024188804    0.7655835650
H       -3.7814789026    1.1779843300    1.5512396974
H       -2.3083938485    1.7469804334    2.3743549784
H       -2.5543795703    0.9548498787   -1.2287862851
H       -1.9736619582   -0.7310477436   -1.0360872690
H       -3.5857015105   -0.2675283904   -0.4392794905
H       -0.6809116572    1.8589659497   -0.1611090013
H       -0.1071122088    1.2759077295    1.4196376744
H        0.0314330503    0.2334472961   -0.0314468989
H       -1.4321374649   -7.3193259315    4.0612253074
H       -2.0605880171   -6.2220529582    5.2708052932
29   
Generated by ForceBalance from scan.xyz: Frame 8 of 24
C       -3.1764594136   -1.3849478889    1.9292080157
C       -0.7530773133   -1.3708175136    2.0490531756
C       -3.2079086249   -2.5438112177    2.7013337748
C       -0.7877340993   -2.5275454756    2.8292044543
C       -1.9472299374   -0.8053732885    1.5996408611
C       -2.0133625736   -3.1158229474    3.1447449258
C       -1.4268368523   -5.3816609477    3.5163038099
C       -2.7293750280    1.5357077121    1.4351920703
C       -2.5920207558    0.1226719018   -0.5972302682
C       -0.5642565508    0.9602840396    0.4703545949
N       -1.6233775717   -6.3674873240    4.4196589191
N       -1.9524271700    0.4356800232    0.7409420676
O       -0.7817851708   -5.4304217137    2.4919039759
O       -2.0963801153   -4.2259638331    3.9541159561
H       -4.1192389872   -0.9647744557    1.5947479900
H        0.2150463883   -0.9467843269    1.8170162897
H       -4.1528141512   -3.0103970192    2.9603286093
H        0.1361566230   -2.9755457236    3.1756427241
H       -2.7040630898    2.4293960381    0.8107464724
H       -3.7580816749    1.2157324357    1.5815247246
H       -2.2620482993    1.7279637065    2.4003216197
H       -2.5659940688    1.0204353564   -1.2158577872
H       -2.0284900348   -0.6838150874   -1.0650088294
H       -3.6214579686   -0.1906126035   -0.4409630142
H       -0.6581096372    1.8510308506   -0.1498734676
H       -0.0844954326    1.2200859538    1.4125042044
H        0.0121412043    0.2048857295   -0.0609272384
H       -1.2506997058   -7.2838254310    4.2130932484
H       -2.2395820474   -6.2411095163    5.2107770418
29   
Generated by ForceBalance from scan.xyz: Frame 9 of 24
C       -3.2068866148   -1.3855227868    1.8901725652
C       -0.7848672723   -1.4254136890    1.9831375232
C       -3.2516061724   -2.5614564025    2.6330334021
C       -0.8297587331   -2.6018170286    2.7340206888
C       -1.9696423403   -0.8222392814    1.5607751282
C       -2.0650578006   -3.1726833282    3.0519755886
C       -1.3508848078   -5.3918555532    3.5884621951
C       -2.7023076880    1.5384121241    1.4692289149
C       -2.6192410280    0.1797632261   -0.6021827881
C       -0.5613875648    0.9427587875    0.4634540633
N       -1.6173193682   -6.3507650397    4.5031363580
N       -1.9576176185    0.4413281199    0.7361093269
O       -0.5299363267   -5.4266505391    2.6983671715
O       -2.1973886644   -4.2968480607    3.8299225645
H       -4.1453256670   -0.9393671916    1.5777702826
H        0.1896970585   -1.0152933223    1.7526697529
H       -4.2028877048   -3.0151386674    2.8914254035
H        0.0918032188   -3.0705381334    3.0538642001
H       -2.6650591835    2.4481861503    0.8690295509
H       -3.7359025968    1.2364016872    1.6194519197
H       -2.2197675280    1.6940942459    2.4334461578
H       -2.5829913769    1.0942220669   -1.1953637410
H       -2.0773717441   -0.6236050531   -1.0999494871
H       -3.6527154062   -0.1178695941   -0.4420023019
H       -0.6422930818    1.8511632719   -0.1325482920
H       -0.0660430782    1.1675217493    1.4065540641
H       -0.0072438140    0.1890239982   -0.0932495601
H       -1.1418555482   -7.2376528592    4.4090894764
H       -2.3823853875   -6.2568027788    5.1570020698
29   
Generated by ForceBalance from scan.xyz: Frame 10 of 24
C       -3.2082554634   -1.3888892045    1.8653179364
C       -0.7884061594   -1.4530247584    1.9226038391
C       -3.2528948984   -2.5816196072    2.5778292500
C       -0.8292440555   -2.6497794517    2.6427461125
C       -1.9709069040   -0.8262953702    1.5327743570
C       -2.0661398353   -3.2178758219    2.9666790772
C       -1.2737274409   -5.3829716239    3.6900079435
C       -2.6823762257    1.5420591855    1.5163077288
C       -2.6426626984    0.2402735259   -0.5920133291
C       -0.5620391192    0.9545661075    0.4632938126
N       -1.6462690967   -6.3291820848    4.5808951769
N       -1.9588676192    0.4587795677    0.7426759584
O       -0.2886686782   -5.3848566635    2.9845969523
O       -2.2353052548   -4.3610651078    3.7054300875
H       -4.1477058945   -0.9276179011    1.5788954928
H        0.1872396346   -1.0469605546    1.6891418107
H       -4.2048605296   -3.0324243611    2.8387022818
H        0.0938752166   -3.1322375575    2.9314520289
H       -2.6455630223    2.4675983206    0.9406622200
H       -3.7164191570    1.2451900683    1.6737040666
H       -2.1842532583    1.6669133762    2.4770747271
H       -2.6063559649    1.1701131555   -1.1608246810
H       -2.1161951481   -0.5542672872   -1.1195549023
H       -3.6765357797   -0.0518596423   -0.4242532238
H       -0.6426633892    1.8806902425   -0.1048369647
H       -0.0502805358    1.1467142609    1.4048204644
H       -0.0239403220    0.2119886713   -0.1233651396
H       -1.0939933724   -7.1740662629    4.6336112922
H       -2.5288264067   -6.2742147606    5.0703375777
29   
Generated by ForceBalance from scan.xyz: Frame 11 of 24
C       -3.2057903559   -1.4000888494    1.8372112821
C       -0.7873830962   -1.4762202744    1.8520630262
C       -3.2431736364   -2.6044429901    2.5277958980
C       -0.8192005671   -2.6882263991    2.5484703089
C       -1.9713717277   -0.8347228790    1.4959042088
C       -2.0531717920   -3.2567000937    2.8868899809
C       -1.2214488862   -5.3523154689    3.8046470866
C       -2.6663862695    1.5370127261    1.5523214198
C       -2.6784435674    0.2887230194   -0.5882117956
C       -0.5718587764    0.9620854851    0.4420009314
N       -1.7009696046   -6.3196919621    4.6192708971
N       -1.9663402917    0.4688284061    0.7371796244
O       -0.1072550602   -5.2799439418    3.3331620427
O       -2.2430997039   -4.4183574665    3.5898441091
H       -4.1483087383   -0.9294725871    1.5771437423
H        0.1867141512   -1.0718371760    1.6089691827
H       -4.1929648529   -3.0547176197    2.7972750995
H        0.1055813527   -3.1813533483    2.8094733120
H       -2.6358352355    2.4763343767    0.9990385818
H       -3.6987135666    1.2421189843    1.7243422890
H       -2.1473146557    1.6349968063    2.5050782077
H       -2.6479974164    1.2326321530   -1.1337002427
H       -2.1677987270   -0.4949144773   -1.1467087892
H       -3.7105582518   -0.0016005805   -0.4070048053
H       -0.6571727188    1.9018585449   -0.1025447499
H       -0.0404670754    1.1285601296    1.3774985214
H       -0.0504666315    0.2299802131   -0.1722681483
H       -1.1081390039   -7.1156476939    4.8109864007
H       -2.6709630790   -6.3375338632    4.9022824139
29   
Generated by ForceBalance from scan.xyz: Frame 12 of 24
C       -3.2504851163   -1.2545094627    2.2024837922
C       -0.8596815228   -1.0417560565    2.5062946904
C       -3.2869384211   -2.2116114393    3.2074267193
C       -0.8901760936   -2.0053466851    3.5195566186
C       -2.0293059357   -0.6667618399    1.8503220551
C       -2.1106808486   -2.5942506865    3.8730155538
C       -1.2826962131   -4.0805951964    5.6241986898
C       -2.9060799021    1.5355421644    1.1507422451
C       -2.5362728690   -0.2454584551   -0.5317610030
C       -0.6439000759    0.9144377583    0.4807685971
N       -1.8248089396   -5.0028062950    6.4515176629
N       -2.0233586319    0.3694984647    0.7545494784
O       -0.1151849627   -3.7611809059    5.5553131426
O       -2.3101542616   -3.5486232370    4.8367382967
H       -4.1823026613   -0.9884087494    1.7142380140
H        0.1037408751   -0.6117880915    2.2642607619
H       -4.2260209896   -2.6759594095    3.4901132368
H        0.0229373252   -2.2889609292    4.0214367956
H       -2.8750253986    2.2839418546    0.3580529324
H       -3.9260764808    1.1855019084    1.2900474077
H       -2.5274476519    1.9488975647    2.0848406383
H       -2.5066823654    0.5100842991   -1.3176894340
H       -1.8964897902   -1.0897992902   -0.7857999309
H       -3.5577200595   -0.5885783406   -0.3860792682
H       -0.7268319968    1.6504691216   -0.3182085131
H       -0.2578200933    1.3924562438    1.3794608791
H        0.0101193565    0.1036402468    0.1644190140
H       -1.2157712720   -5.4554354501    7.1190765069
H       -2.8196617049   -5.1780346700    6.4746809996
29   
Generated by ForceBalance from scan.xyz: Frame 13 of 24
C       -3.2453768119   -1.2708047011    2.2033117584
C       -0.8477687431   -1.0969289924    2.4767933584
C       -3.2841906378   -2.2362931012    3.2008693167
C       -0.8808562706   -2.0694940978    3.4807876193
C       -2.0209066532   -0.6967557352    1.8413287290
C       -2.1054190988   -2.6413882020    3.8465796595
C       -1.3127722578   -3.9694649889    5.7266112142
C       -2.8704995329    1.5307480377    1.1915853643
C       -2.5605092815   -0.2288302427   -0.5253828856
C       -0.6313811874    0.8820034046    0.4720491202
N       -1.7708581962   -5.0223369428    6.4404231443
N       -2.0151542558    0.3562194611    0.7614009394
O       -0.2473784945   -3.4064939361    5.8574488251
O       -2.2921822518   -3.6208304229    4.7875469129
H       -4.1794398825   -0.9848677192    1.7308499490
H        0.1187493561   -0.6796468607    2.2254158945
H       -4.2266826513   -2.6879777759    3.4926761309
H        0.0342630995   -2.3633864409    3.9734184544
H       -2.8392837521    2.2917369652    0.4109648273
H       -3.8940338027    1.1959978961    1.3422441147
H       -2.4692482045    1.9215273660    2.1259582997
H       -2.5304179489    0.5385697542   -1.2997063908
H       -1.9403854245   -1.0801928067   -0.8036057739
H       -3.5854362235   -0.5559700994   -0.3680327449
H       -0.7153637470    1.6313227992   -0.3143670427
H       -0.2219756436    1.3399939535    1.3708161272
H        0.0032635192    0.0652076242    0.1324708840
H       -1.1985858045   -5.3747809535    7.1952717929
H       -2.6934486406   -5.4048135316    6.2870491550
29   
Generated by ForceBalance from scan.xyz: Frame 14 of 24
C       -3.2488817047   -1.2858988559    2.1868707741
C       -0.8432397818   -1.1519497318    2.4319831474
C       -3.2902810788   -2.2712860681    3.1661430339
C       -0.8795727677   -2.1456337409    3.4138916559
C       -2.0208970645   -0.7213937718    1.8234934850
C       -2.1084285707   -2.7021764098    3.7846680619
C       -1.3763755020   -3.8674233118    5.7712859558
C       -2.8485126360    1.5325346398    1.2402061841
C       -2.5833272561   -0.1872319879   -0.5243088044
C       -0.6274141697    0.8731079498    0.4763985212
N       -1.7260053018   -4.9786621658    6.4565621273
N       -2.0143647184    0.3579934794    0.7697318523
O       -0.4618202240   -3.1116695323    6.0179112462
O       -2.2686183969   -3.7108975707    4.7000613022
H       -4.1838758675   -0.9755379106    1.7320804707
H        0.1254635063   -0.7438548695    2.1743084031
H       -4.2350432034   -2.7152038373    3.4626687046
H        0.0382098550   -2.4650529475    3.8870307960
H       -2.8167978572    2.3122831195    0.4783561480
H       -3.8744499621    1.2076690430    1.3957476189
H       -2.4302548977    1.8944472305    2.1787446792
H       -2.5524324635    0.5990652900   -1.2793926564
H       -1.9781800555   -1.0393356908   -0.8317183602
H       -3.6105359458   -0.5047541797   -0.3623012183
H       -0.7112766431    1.6440426162   -0.2888498631
H       -0.2006153982    1.3016602552    1.3815816141
H       -0.0081102408    0.0574718555    0.1069793431
H       -1.2070454502   -5.2021485198    7.2944868129
H       -2.5398381038   -5.5226818556    6.2055349257
29   
Generated by ForceBalance from scan.xyz: Frame 15 of 24
C       -3.2389206409   -1.3179079576    2.1768691647
C       -0.8265866821   -1.2110238135    2.3943037236
C       -3.2790960074   -2.3268468749    3.1342165207
C       -0.8651234415   -2.2280432530    3.3504617966
C       -2.0102912144   -0.7565796342    1.8130596280
C       -2.0938236824   -2.7790015858    3.7242396733
C       -1.4655099753   -3.7809592032    5.8046422523
C       -2.8196058027    1.5214491966    1.3031534922
C       -2.6040529655   -0.1536745354   -0.5109426771
C       -0.6195391640    0.8568681480    0.4845089736
N       -1.7075105709   -4.9146377920    6.4987026773
N       -2.0075787219    0.3501544153    0.7874976683
O       -0.7369119931   -2.8647720439    6.1169321218
O       -2.2141379790   -3.8162976961    4.6162193874
H       -4.1756435985   -0.9866416422    1.7408430862
H        0.1421013656   -0.8053606624    2.1331790045
H       -4.2242504639   -2.7684401971    3.4330299824
H        0.0543442606   -2.5731587497    3.8050491606
H       -2.7899033728    2.3212341855    0.5622972941
H       -3.8469377006    1.2047634379    1.4662105104
H       -2.3822351806    1.8523348168    2.2444377385
H       -2.5747852387    0.6519096302   -1.2454485448
H       -2.0150129496   -1.0048954176   -0.8504323714
H       -3.6326587936   -0.4622525563   -0.3410015583
H       -0.7069004181    1.6481524799   -0.2592665193
H       -0.1729786425    1.2573268380    1.3929870877
H       -0.0160349204    0.0440807934    0.0839170474
H       -1.2723671279   -5.0238381809    7.4042299046
H       -2.3682648867   -5.6048274407    6.1694804985
29   
Generated by ForceBalance from scan.xyz: Frame 16 of 24
C       -3.2051033677   -1.3539436519    2.1689136976
C       -0.7851283524   -1.2614157146    2.3324329520
C       -3.2264133308   -2.3869277106    3.1027285419
C       -0.8083971805   -2.3020859846    3.2622775982
C       -1.9821982076   -0.7899049262    1.7919142125
C       -2.0297040674   -2.8542842002    3.6512105644
C       -1.5519404177   -3.7225075236    5.8051001015
C       -2.7914912054    1.5046220771    1.3631124478
C       -2.6298069200   -0.1226353463   -0.5002288855
C       -0.6159738604    0.8518110521    0.4720166869
N       -1.7324472010   -4.8487459737    6.5290791199
N       -1.9988233350    0.3436791727    0.7959571342
O       -1.0112398635   -2.6947239889    6.1506262713
O       -2.0991070121   -3.9156366018    4.5246636435
H       -4.1496449843   -1.0077390243    1.7623574439
H        0.1779380470   -0.8506940653    2.0590480115
H       -4.1660709400   -2.8323507555    3.4130530850
H        0.1170473747   -2.6676069538    3.6913814594
H       -2.7748332427    2.3240803429    0.6436944112
H       -3.8164137076    1.1888559804    1.5422869010
H       -2.3297538400    1.8072359716    2.3022771286
H       -2.6133815675    0.7019466282   -1.2137053333
H       -2.0542956634   -0.9677113034   -0.8763434968
H       -3.6558622155   -0.4299235353   -0.3135562853
H       -0.7175599585    1.6620498692   -0.2491731771
H       -0.1455784872    1.2275150273    1.3790446443
H       -0.0264219082    0.0468274125    0.0364145479
H       -1.4089199880   -4.8630583171    7.4862568165
H       -2.2240085800   -5.6463494410    6.1502845394
29   
Generated by ForceBalance from scan.xyz: Frame 17 of 24
C       -3.1628034508   -1.3805286577    2.1791929450
C       -0.7381168763   -1.2969296615    2.2670159590
C       -3.1600782527   -2.4287446689    3.0965395152
C       -0.7407941203   -2.3513952054    3.1819175198
C       -1.9504055657   -0.8140626289    1.7726432742
C       -1.9488421387   -2.9069362216    3.5992191464
C       -1.6754764761   -3.6702694562    5.8095580050
C       -2.7687472574    1.4885098281    1.4114163011
C       -2.6669632523   -0.1042018835   -0.4863060270
C       -0.6227581053    0.8507115811    0.4412342703
N       -1.7684654747   -4.7971290172    6.5494800627
N       -1.9955926776    0.3375587909    0.7982239221
O       -1.3894725375   -2.5541582949    6.1852807818
O       -1.9675286274   -3.9762313530    4.4700178843
H       -4.1178331650   -1.0240237533    1.8076581331
H        0.2172248301   -0.8834558632    1.9716146994
H       -4.0918284864   -2.8747202487    3.4290920059
H        0.1938096157   -2.7309147426    3.5806384243
H       -2.7713286992    2.3216858910    0.7077885729
H       -3.7886467480    1.1711322446    1.6145373577
H       -2.2789475139    1.7718284316    2.3423555870
H       -2.6714993206    0.7336071769   -1.1843561238
H       -2.1043805942   -0.9424329732   -0.8958456219
H       -3.6871754707   -0.4141430538   -0.2738508597
H       -0.7456291894    1.6741066432   -0.2614831465
H       -0.1243183567    1.2096231296    1.3400629159
H       -0.0477826828    0.0536379840   -0.0271928608
H       -1.5896061994   -4.7335627255    7.5418269633
H       -2.0275519627   -5.6822725476    6.1363678246
29   
Generated by ForceBalance from scan.xyz: Frame 18 of 24
C       -3.1128980379   -1.3957008555    2.2015534514
C       -0.6861605533   -1.3135765381    2.2099667413
C       -3.0823597465   -2.4490811156    3.1112225365
C       -0.6619476681   -2.3714667250    3.1220982351
C       -1.9132866408   -0.8281294394    1.7582265454
C       -1.8552333786   -2.9309714674    3.5708746694
C       -1.8267051978   -3.6395968121    5.8086298867
C       -2.7394228557    1.4781481032    1.4436348353
C       -2.7071091226   -0.1001387620   -0.4690723778
C       -0.6299013175    0.8444648953    0.3933825352
N       -1.8068815976   -4.7625178357    6.5605159750
N       -1.9902849900    0.3307402818    0.7944120114
O       -1.8442249359   -2.4883701213    6.1876805201
O       -1.8273159792   -3.9946685041    4.4506467569
H       -4.0788305975   -1.0345353252    1.8643411868
H        0.2594193985   -0.8982221822    1.8870807374
H       -4.0040172995   -2.8932210121    3.4728858795
H        0.2833385958   -2.7550320108    3.4919269010
H       -2.7636621945    2.3173639437    0.7476509683
H       -3.7525912201    1.1612363754    1.6786063358
H       -2.2177372769    1.7520698673    2.3599363074
H       -2.7348272180    0.7431867465   -1.1598719295
H       -2.1605127535   -0.9357876055   -0.9047374465
H       -3.7197516968   -0.4103626398   -0.2234947732
H       -0.7756994237    1.6719007848   -0.3001242913
H       -0.1006173126    1.1980761964    1.2765416148
H       -0.0722670782    0.0493694571   -0.0988073738
H       -1.8009813005   -4.6659319628    7.5661797893
H       -1.7893164297   -5.6810789783    6.1396127697
29   
Generated by ForceBalance from scan.xyz: Frame 19 of 24
C       -3.0638575437   -1.3826973203    2.2401352861
C       -0.6380207130   -1.3094588954    2.1722752152
C       -3.0113716733   -2.4324463943    3.1515482634
C       -0.5908441019   -2.3611756188    3.0918213837
C       -1.8762070655   -0.8221754044    1.7557155105
C       -1.7713788957   -2.9194168083    3.5734075804
C       -1.9895104654   -3.6512086329    5.7975919319
C       -2.7066076586    1.4841181458    1.4495749583
C       -2.7350182615   -0.1081254770   -0.4513085515
C       -0.6308441469    0.8377484009    0.3415657985
N       -1.8462254948   -4.7583776977    6.5589494576
N       -1.9795480733    0.3302900156    0.7868705883
O       -2.3154658916   -2.5394019509    6.1533582904
O       -1.7005168619   -3.9725030894    4.4614365225
H       -4.0382383824   -1.0179274014    1.9324092243
H        0.2990952220   -0.8989447205    1.8198551920
H       -3.9245486304   -2.8666404091    3.5441847067
H        0.3630975873   -2.7459810098    3.4376352776
H       -2.7512366317    2.3176938961    0.7478430437
H       -3.7124149593    1.1709692157    1.7186295799
H       -2.1564572309    1.7646606762    2.3470271298
H       -2.7824664357    0.7304136784   -1.1468623987
H       -2.2031698755   -0.9477855668   -0.8973784889
H       -3.7401408125   -0.4149778305   -0.1727288339
H       -0.7953775425    1.6610383050   -0.3527022227
H       -0.0742247632    1.1957430815    1.2059715596
H       -0.0902497615    0.0380220818   -0.1619744544
H       -2.0104726904   -4.6808443453    7.5528444231
H       -1.5486628647   -5.6386504396    6.1616661735
29   
Generated by ForceBalance from scan.xyz: Frame 20 of 24
C       -3.0217693663   -1.3522039084    2.3042620345
C       -0.6001962576   -1.2894983390    2.1566795117
C       -2.9447777959   -2.3875841441    3.2298098692
C       -0.5261155364   -2.3256186234    3.0919293940
C       -1.8490559515   -0.8036878598    1.7718323951
C       -1.6921074985   -2.8732108930    3.6209895517
C       -2.1020349484   -3.7090489173    5.7964977896
C       -2.6873817215    1.4973966626    1.4448906782
C       -2.7731113748   -0.1324002706   -0.4216172450
C       -0.6458058751    0.8267365662    0.2891994269
N       -1.8780019704   -4.8119542972    6.5439548146
N       -1.9807688741    0.3298374053    0.7845003780
O       -2.6645778865   -2.6879352883    6.1270068157
O       -1.5723099697   -3.9163150755    4.5116328662
H       -4.0048389156   -0.9908404024    2.0209740174
H        0.3267637812   -0.8892093825    1.7674948847
H       -3.8486583302   -2.8086961520    3.6542309268
H        0.4370890681   -2.7092934171    3.4123696741
H       -2.7544476883    2.3160332699    0.7274983841
H       -3.6840559670    1.1900693568    1.7519198192
H       -2.1096011370    1.7969105377    2.3185179253
H       -2.8411229650    0.6920057207   -1.1322348987
H       -2.2550859598   -0.9813832474   -0.8662793387
H       -3.7694727126   -0.4327817420   -0.1068581563
H       -0.8302821579    1.6368861481   -0.4154538464
H       -0.0630957899    1.2001600796    1.1295829599
H       -0.1212297146    0.0167814939   -0.2148954565
H       -2.1789090045   -4.8062461707    7.5085515515
H       -1.3644839846   -5.6021175729    6.1788765442
29   
Generated by ForceBalance from scan.xyz: Frame 21 of 24
C       -2.9850542247   -1.3029218502    2.3685653163
C       -0.5694921063   -1.2543139794    2.1637106283
C       -2.8965188273   -2.3132966734    3.3209485899
C       -0.4807179496   -2.2639671374    3.1248581737
C       -1.8245423191   -0.7724700999    1.7938123281
C       -1.6356576320   -2.7912141178    3.7017452322
C       -2.1913364088   -3.7811467911    5.8018787894
C       -2.6618954671    1.5215381301    1.4162160424
C       -2.7973953920   -0.1635515659   -0.3966724815
C       -0.6502251063    0.8061917613    0.2350111888
N       -1.9044825802   -4.8941006707    6.5122588638
N       -1.9752034984    0.3312096088    0.7761226965
O       -2.9375034749   -2.8779781851    6.1109244388
O       -1.4692285286   -3.8199520179    4.5973611595
H       -3.9734048705   -0.9487379214    2.0945531370
H        0.3508955012   -0.8719400932    1.7421114441
H       -3.7959327956   -2.7161777135    3.7687465759
H        0.4876414792   -2.6459774737    3.4312984147
H       -2.7446318042    2.3174699114    0.6752440287
H       -3.6514138319    1.2273700487    1.7574492796
H       -2.0617727333    1.8465965432    2.2652908790
H       -2.8785312174    0.6391668363   -1.1304016232
H       -2.2934605424   -1.0282188092   -0.8270430496
H       -3.7873591386   -0.4493265826   -0.0497942539
H       -0.8473886141    1.5962476935   -0.4887821414
H       -0.0459019190    1.2008824009    1.0500351312
H       -0.1415454493   -0.0211532685   -0.2570252483
H       -2.3087498470   -4.9864429568    7.4338174501
H       -1.2219839741   -5.5661190004    6.1896393694
29   
Generated by ForceBalance from scan.xyz: Frame 22 of 24
C       -2.9935261791   -1.5388456894    1.6042823519
C       -0.5971313491   -1.2713264537    1.8144995821
C       -2.9224714666   -2.7957355913    2.1991463734
C       -0.5230386368   -2.5286891911    2.4145650378
C       -1.8379208926   -0.7746103933    1.4146745604
C       -1.6772543045   -3.2901514939    2.6145318343
C       -2.4668168743   -5.1213648987    3.9674255937
C       -2.8710324671    1.4593507043    1.6350251543
C       -2.5762017397    0.4447431901   -0.6067832730
C       -0.6537216328    1.2946150466    0.6305177399
N       -2.0634023868   -6.3703732913    4.2923183373
N       -1.9766152209    0.5860736507    0.7776746827
O       -3.4963845346   -4.5728712501    4.2951617588
O       -1.4798121268   -4.5320773074    3.1631540199
H       -3.9713396937   -1.1822757544    1.2971906728
H        0.3233641788   -0.7175201009    1.6840380626
H       -3.8244037194   -3.3728650500    2.3486608050
H        0.4341575704   -2.9270619501    2.7348080512
H       -2.9454641332    2.4443740333    1.1728075131
H       -3.8570755625    1.0067038694    1.7057892322
H       -2.4277861864    1.5322856409    2.6274721487
H       -2.6494953154    1.4343683269   -1.0591242065
H       -1.9262251243   -0.2004867764   -1.1966824765
H       -3.5648918578   -0.0008150807   -0.5291355972
H       -0.8409940022    2.2617063927    0.1650918679
H       -0.2102424084    1.4427698796    1.6136835729
H        0.0049140646    0.7050339738   -0.0050331559
H       -2.6287500159   -6.8952452141    4.9454876998
H       -1.1432073785   -6.7064787240    4.0435032807
29   
Generated by ForceBalance from scan.xyz: Frame 23 of 24
C       -3.0071465283   -1.4982906119    1.6663880252
C       -0.6044923652   -1.2583284008    1.8366422475
C       -2.9480741453   -2.7421076193    2.2912540754
C       -0.5404446865   -2.5014104660    2.4634843081
C       -1.8450146426   -0.7560929766    1.4408894703
C       -1.7024750655   -3.2448866406    2.7000171824
C       -2.5081558958   -5.2148083069    3.8769190015
C       -2.8417889342    1.4981571852    1.6163931920
C       -2.5978241235    0.4186338615   -0.6007996200
C       -0.6429671792    1.2715654089    0.5828404586
N       -1.9923312328   -6.4050780472    4.2594468252
N       -1.9741158015    0.5884926775    0.7697521304
O       -3.6528763448   -4.8385536913    4.0081770118
O       -1.4830467265   -4.4645905867    3.2867485842
H       -3.9847531559   -1.1353853751    1.3656274144
H        0.3219765497   -0.7214782126    1.6794384508
H       -3.8550959431   -3.3012869020    2.4683552766
H        0.4161199056   -2.9062458256    2.7774576642
H       -2.9094755674    2.4712138537    1.1284763291
H       -3.8329804085    1.0621573591    1.7149208376
H       -2.3816120535    1.5916679312    2.5993701406
H       -2.6632608866    1.3964676647   -1.0792645614
H       -1.9673629897   -0.2528198469   -1.1825438990
H       -3.5918063980   -0.0091221913   -0.4953477622
H       -0.8222298885    2.2281147977    0.0931051635
H       -0.1820236004    1.4400668435    1.5546424695
H       -0.0034570022    0.6537121023   -0.0453926972
H       -2.5896130745   -7.0293096300    4.7841654455
H       -1.0027088847   -6.5979929886    4.1898028933
29   
Generated by ForceBalance from scan.xyz: Frame 24 of 24
C       -3.0163663210   -1.4478842166    1.7215803396
C       -0.6085789981   -1.2400666189    1.8257475303
C       -2.9605154987   -2.6863806880    2.3583561108
C       -0.5456772892   -2.4774133051    2.4625646038
C       -1.8517072023   -0.7249242238    1.4542363197
C       -1.7108073966   -3.2065167095    2.7329084381
C       -2.4966872385   -5.2940009256    3.7275156812
C       -2.8212870615    1.5437050900    1.6065834464
C       -2.6312614370    0.4195335735   -0.5935064232
C       -0.6453056388    1.2743142029    0.5366119898
N       -1.9187037040   -6.3738004320    4.3018071636
N       -1.9794683316    0.6089305304    0.7615336570
O       -3.6813871527   -5.1163327482    3.5405266966
O       -1.4816493341   -4.4030318655    3.3617935188
H       -3.9968955561   -1.0737108488    1.4449454639
H        0.3210210095   -0.7178576894    1.6402379606
H       -3.8683653474   -3.2356817760    2.5588708066
H        0.4130753916   -2.8916902301    2.7568707422
H       -2.8877525182    2.5081147894    1.1016538181
H       -3.8152555455    1.1210656338    1.7314661068
H       -2.3417443664    1.6507647622    2.5788643255
H       -2.6976660172    1.3889534519   -1.0887312152
H       -2.0179943593   -0.2681566717   -1.1746548965
H       -3.6263339642    0.0020701669   -0.4604923496
H       -0.8242985366    2.2244628149    0.0344604825
H       -0.1631064328    1.4537228064    1.4961155092
H       -0.0250426612    0.6394015898   -0.0938607330
H       -2.5250311969   -7.0878005904    4.6815713975
H       -0.9256254227   -6.4075334920    4.4857882532
