21   
Generated by ForceBalance from scan.xyz: Frame 1 of 24
C        1.7966645074   -1.1204536724   -0.1627618274
C        0.7410068918   -0.5110050671    0.5161293261
C        2.8648781333   -1.7037708136    0.5231020110
C        1.8344957045   -1.0522518695    2.6170283643
C        0.7650653155   -0.4825640047    1.9178786007
C        2.8867748425   -1.6699158789    1.9294911836
C       -0.3173472194    0.1488818322    2.7166461992
C        5.1788714735   -2.6357409838    2.2757561321
N        6.0136810106   -3.0190942866    3.3281525145
N        3.9221726204   -2.2357232358    2.7024182648
O       -0.3448242377    0.2085848620    3.9347044578
O        5.5260451882   -2.7111347202    1.1022834170
O       -1.3129435207    0.6747846607    1.9509921002
H        1.7918645863   -1.1517668535   -1.2489465053
H       -0.0874695449   -0.0652726706   -0.0225029820
H        3.6784175860   -2.1761426788   -0.0105629603
H        1.8261999449   -1.0023887379    3.7029753941
H        6.9667285970   -3.1581764170    3.0127053316
H        5.9512280120   -2.4938459231    4.1932331033
H        3.7313948714   -2.3032095596    3.6938867527
H       -1.9563700466    1.0557485917    2.5782791404
21   
Generated by ForceBalance from scan.xyz: Frame 2 of 24
C        1.8166613601   -0.9283462603   -0.1262003853
C        0.7414659528   -0.3971652406    0.5840757111
C        2.8904607508   -1.5274431104    0.5384511444
C        1.8291009990   -1.0434358812    2.6609575644
C        0.7475594789   -0.4681954892    1.9845198606
C        2.9129903611   -1.5717017072    1.9438490044
C       -0.4163680843    0.0965778559    2.7205402698
C        5.3166205012   -2.2918307936    2.3894486357
N        5.7865541939   -1.5804966819    1.2937077621
N        3.9585937777   -2.1823593708    2.6676081233
O       -1.3791334137    0.6292681784    2.1985574629
O        6.0407543303   -3.0000905881    3.0821125627
O       -0.3116983025   -0.0372138381    4.0722138001
H        1.8156823086   -0.9004552139   -1.2123981338
H       -0.1035192769    0.0606140450    0.0808608386
H        3.6967877275   -1.9799002459   -0.0280901334
H        1.8307714097   -1.0743129094    3.7459086407
H        6.7987633827   -1.5272790867    1.2936712647
H        5.3230642736   -0.7070933772    1.0674026780
H        3.7210447831   -2.6223844876    3.5484568373
H       -1.1210156795    0.3627690213    4.4437037165
21   
Generated by ForceBalance from scan.xyz: Frame 3 of 24
C        1.7782129415   -0.9561369536   -0.1161507478
C        0.7407250098   -0.3953311554    0.6277738725
C        2.8429644692   -1.6027880143    0.5171810919
C        1.8542727583   -1.1006783226    2.6717515686
C        0.7773326438   -0.4803049428    2.0268926611
C        2.8957386829   -1.6632724427    1.9207349341
C       -0.3463330007    0.1212399859    2.7957659925
C        5.3227457355   -2.2330438645    2.3892339063
N        5.7417245040   -1.4400591916    1.3306920749
N        3.9484026754   -2.3229813163    2.5934113695
O       -1.2991022506    0.6965922936    2.3016434762
O        6.1017978183   -2.8616835923    3.0987581903
O       -0.2152110047   -0.0312728578    4.1429460585
H        1.7519053991   -0.9139933185   -1.2015211599
H       -0.0993200246    0.0980071312    0.1503335976
H        3.6246377985   -2.0752211159   -0.0686615254
H        1.8836351231   -1.1413696420    3.7559344546
H        6.7365703000   -1.2530214751    1.3757790137
H        5.1731899805   -0.6373768052    1.0844522000
H        3.7320112409   -2.7706378110    3.4758860697
H       -0.9988616938    0.3963611826    4.5379264225
21   
Generated by ForceBalance from scan.xyz: Frame 4 of 24
C        1.7653294977   -1.0173720883   -0.1567252249
C        0.7537714189   -0.4216502709    0.5966843745
C        2.8081623289   -1.7033468581    0.4715321989
C        1.8557361073   -1.1653321789    2.6332810199
C        0.7964429292   -0.5064107206    1.9955173122
C        2.8656098581   -1.7696626530    1.8737633949
C       -0.2996786396    0.1363642932    2.7709149780
C        5.2834844852   -2.1864767542    2.4506847018
N        5.6817226745   -1.3105317594    1.4543468225
N        3.9172902058   -2.4648948400    2.5212389716
O       -1.2399576190    0.7368243667    2.2828713719
O        6.0749626547   -2.7429399724    3.2050350033
O       -0.1575153550   -0.0094720143    4.1173826977
H        1.7337554165   -0.9701956624   -1.2417014425
H       -0.0717015679    0.1015298360    0.1253896967
H        3.5752242133   -2.2001901909   -0.1146381959
H        1.8937959459   -1.2051211933    3.7171882311
H        6.6374095683   -0.9994281249    1.5788667321
H        5.0326866236   -0.5928218904    1.1535444649
H        3.6911784936   -2.9380060131    3.3884533926
H       -0.9227627868    0.4449858759    4.5184951701
21   
Generated by ForceBalance from scan.xyz: Frame 5 of 24
C        1.7290889273   -1.0739022733   -0.2008386209
C        0.7674329804   -0.4331061804    0.5807306034
C        2.7608977050   -1.7980574442    0.4031167779
C        1.8994151812   -1.2067400781    2.5893025111
C        0.8494658825   -0.5069909897    1.9786148856
C        2.8532003717   -1.8625148911    1.8020992346
C       -0.1933901636    0.1905273478    2.7797526520
C        5.2460910974   -2.1593984919    2.4785545123
N        5.6111922652   -1.1692046909    1.5829410457
N        3.9173965228   -2.5887821873    2.4076244951
O       -1.1228491032    0.8236790291    2.3127000951
O        6.0399759533   -2.6898245560    3.2487620313
O       -0.0135826454    0.0553053149    4.1225178102
H        1.6673717758   -1.0279610788   -1.2845154231
H       -0.0497822469    0.1214755120    0.1311089782
H        3.4987070183   -2.3228181605   -0.1967833100
H        1.9726231308   -1.2401033861    3.6715740997
H        6.5137293673   -0.7634876801    1.7965348008
H        4.9064815869   -0.5169545565    1.2607653773
H        3.6806762246   -3.1443664214    3.2221050204
H       -0.7455083730    0.5462062757    4.5424764451
21   
Generated by ForceBalance from scan.xyz: Frame 6 of 24
C        1.6593147332   -1.1572601764   -0.2508557271
C        0.7536852953   -0.4719556252    0.5590169788
C        2.6984173004   -1.8942586159    0.3259808585
C        1.9486104121   -1.2362862419    2.5336914484
C        0.8953647587   -0.5149960565    1.9538489204
C        2.8454561785   -1.9373846099    1.7195806803
C       -0.0881068328    0.2351629197    2.7820426178
C        5.1974541694   -2.1294732415    2.5248110857
N        5.5090814035   -0.9989555910    1.7909992337
N        3.9322289572   -2.6727048069    2.2861192434
O       -1.0107734998    0.8954901790    2.3397452838
O        5.9925905713   -2.6751106837    3.2834324330
O        0.1403959128    0.1159994455    4.1186004928
H        1.5522607550   -1.1290608633   -1.3315669685
H       -0.0656758505    0.0982464885    0.1331294448
H        3.4043296498   -2.4438166300   -0.2899453654
H        2.0696170150   -1.2524552134    3.6120005702
H        6.3438166176   -0.5289140414    2.1166698358
H        4.7623583153   -0.3983033204    1.4648089110
H        3.6986134834   -3.3605026709    2.9937077397
H       -0.5549620436    0.6414724023    4.5584528068
21   
Generated by ForceBalance from scan.xyz: Frame 7 of 24
C        1.9822051663   -0.9420442292   -0.0219312751
C        0.8726515611   -0.3543843493    0.5850953294
C        2.9284354819   -1.6234183924    0.7492222959
C        1.6275243932   -1.1804681916    2.7445869617
C        0.6988192080   -0.4703383068    1.9720157309
C        2.7588365500   -1.7400050445    2.1375240399
C       -0.5067734239    0.1557591965    2.5817832870
C        4.6209602312   -1.9170304040    3.8039956750
N        4.3413962496   -0.6392616437    4.2505666795
N        3.6912749043   -2.4766346211    2.9199997973
O       -1.3609123679    0.7644803209    1.9627419251
O        5.5837647726   -2.5676891709    4.1975779692
O       -0.5717323507   -0.0119749474    3.9306303241
H        2.1213283238   -0.8605513522   -1.0962980335
H        0.1329082752    0.1890087421    0.0063852666
H        3.8049512311   -2.0638388308    0.2798328299
H        1.4759176486   -1.3031615515    3.8111302087
H        5.1205898449   -0.2086010495    4.7318888540
H        3.7862769028   -0.0218021506    3.6710416948
H        4.0771325691   -3.3097171256    2.4896265674
H       -1.3941602625    0.4289420284    4.2173914515
21   
Generated by ForceBalance from scan.xyz: Frame 8 of 24
C        1.9150097575   -1.0025303245   -0.0769113525
C        0.8310032674   -0.3979293563    0.5590859729
C        2.9055238535   -1.6435142912    0.6711237348
C        1.7018067044   -1.1329301896    2.7109400095
C        0.7305439777   -0.4618413223    1.9561423629
C        2.8092366217   -1.7068186032    2.0709896472
C       -0.4488058089    0.1774614279    2.6023212919
C        4.5937991316   -1.9124918646    3.8443992650
N        4.2222988750   -0.6965169441    4.3875525281
N        3.7914090784   -2.4058940493    2.8129731352
O       -1.3429912808    0.7512584155    2.0069739996
O        5.5393481635   -2.5713140280    4.2662920631
O       -0.4397107591    0.0667838096    3.9590853461
H        2.0011396274   -0.9638129517   -1.1591971865
H        0.0586363200    0.1169987857   -0.0025100770
H        3.7618650047   -2.0934397963    0.1741302904
H        1.5931247237   -1.2194044796    3.7858765381
H        4.9380629073   -0.3028505583    4.9855767629
H        3.7220099861   -0.0310885878    3.8105847436
H        4.2415651300   -3.1893062489    2.3542179996
H       -1.2521573079    0.5097081390    4.2701076991
21   
Generated by ForceBalance from scan.xyz: Frame 9 of 24
C        1.8644742166   -1.0675268388   -0.1193545441
C        0.7868404252   -0.4602581464    0.5255561963
C        2.8921324792   -1.6543967738    0.6208454162
C        1.7459839455   -1.0843727282    2.6766437571
C        0.7349543187   -0.4689941866    1.9259759825
C        2.8454010118   -1.6632864182    2.0259785501
C       -0.4368324490    0.1699577774    2.5861638618
C        4.5528921249   -1.9068108796    3.8925578487
N        4.1170363990   -0.7407603641    4.4983001829
N        3.8780291778   -2.3065559956    2.7406907902
O       -1.3686835015    0.6907131900    1.9998088054
O        5.4638938629   -2.5929143558    4.3463320264
O       -0.3741195875    0.1264013720    3.9457903296
H        1.9164185802   -1.0726151826   -1.2045061203
H       -0.0146072643    0.0141983005   -0.0306720567
H        3.7419178312   -2.1049959001    0.1131707775
H        1.6649228187   -1.1298085798    3.7558018587
H        4.7737050555   -0.4052086357    5.1927078010
H        3.7001481972   -0.0200896280    3.9203750961
H        4.3602094657   -3.0679905219    2.2784750488
H       -1.1873492071    0.5615458945    4.2655566023
21   
Generated by ForceBalance from scan.xyz: Frame 10 of 24
C        1.8171350264   -1.1107130267   -0.1554360386
C        0.7460275909   -0.5057435502    0.5029614868
C        2.8800862781   -1.6489501561    0.5699570307
C        1.7914451817   -1.0309350324    2.6427094564
C        0.7417458663   -0.4678639863    1.9031999874
C        2.8804227923   -1.6121655388    1.9764937272
C       -0.4224091160    0.1668248855    2.5806158220
C        4.5336204034   -1.9238522311    3.8969953524
N        4.0727157932   -0.7970486887    4.5588590877
N        3.9648743891   -2.2010014616    2.6575279259
O       -1.3879997744    0.6402831828    2.0088044757
O        5.3906095954   -2.6671711342    4.3657147798
O       -0.3114562622    0.1785597824    3.9381098600
H        1.8355777551   -1.1523903298   -1.2408892881
H       -0.0838715488   -0.0686703468   -0.0419359067
H        3.7229685320   -2.0978385272    0.0493210850
H        1.7408049167   -1.0389861747    3.7239484196
H        4.6780529155   -0.5416843683    5.3303298209
H        3.7458416680   -0.0153718669    4.0019463177
H        4.4370880833   -2.9711648736    2.1995528396
H       -1.1249385215    0.6047620074    4.2690232673
21   
Generated by ForceBalance from scan.xyz: Frame 11 of 24
C        1.7908612773   -1.1643381146   -0.1527580961
C        0.7160643455   -0.5645480638    0.5049573836
C        2.8835054177   -1.6397529328    0.5707850657
C        1.8271832616   -0.9620073522    2.6398415817
C        0.7424644463   -0.4667615677    1.9013988912
C        2.9164981643   -1.5438900956    1.9750149897
C       -0.4250463596    0.1610615341    2.5794080390
C        4.5137558291   -1.9037408169    3.9400702808
N        4.0245574159   -0.8172060144    4.6481333484
N        4.0498934846   -2.0606989273    2.6360867693
O       -1.4173297430    0.5807907814    2.0111845393
O        5.3178868905   -2.7005344317    4.4134959967
O       -0.2856563752    0.2336757259    3.9328239797
H        1.7874876151   -1.2526279950   -1.2355959940
H       -0.1389726966   -0.1765924875   -0.0380679350
H        3.7269791909   -2.0864086268    0.0489975991
H        1.7962445473   -0.9224791955    3.7203121111
H        4.5667814019   -0.6431808503    5.4866421291
H        3.7832673251    0.0170747003    4.1245475479
H        4.5263262065   -2.8281036074    2.1767060565
H       -1.1048624299    0.6492028792    4.2631509742
21   
Generated by ForceBalance from scan.xyz: Frame 12 of 24
C        1.8598552793   -1.0148509092   -0.0846251233
C        0.7906956490   -0.4050638582    0.5700491604
C        2.8589107948   -1.6568530071    0.6470400958
C        1.7386204370   -1.0809591661    2.7194781640
C        0.7394330665   -0.4447623727    1.9698508678
C        2.8076004381   -1.6970861174    2.0517642605
C       -0.4149945472    0.2182061042    2.6379656916
C        4.0302990075   -2.5491549581    4.0786812532
N        5.1598614089   -3.3175082726    4.3797646461
N        3.8544490665   -2.3699993701    2.7149862874
O       -1.3188338057    0.7936799427    2.0558620855
O        3.3185838513   -2.0594356337    4.9469627489
O       -0.3786675569    0.1253122146    3.9940590245
H        1.9205264701   -0.9950331406   -1.1691880694
H        0.0006836120    0.0990595161    0.0238961887
H        3.6870726304   -2.1327590761    0.1243710786
H        1.6934979481   -1.0961129062    3.7986015569
H        5.1812771227   -3.5673765078    5.3620021545
H        5.3640255792   -4.1003162262    3.7680981753
H        4.6054949593   -2.6910937818    2.1178688027
H       -1.1740802314    0.5911752927    4.3146082357
21   
Generated by ForceBalance from scan.xyz: Frame 13 of 24
C        1.9450035416   -0.8857725525   -0.1439819496
C        0.8461636170   -0.3283336747    0.5112017675
C        2.9106333220   -1.5928567379    0.5710201314
C        1.7171212349   -1.1623245644    2.6325987149
C        0.7401811851   -0.4724147656    1.8998690563
C        2.8083142873   -1.7399832530    1.9674587760
C       -0.4323295814    0.1462227919    2.5776019050
C        3.9098168349   -2.9983110769    3.9042764469
N        2.7118711388   -3.1949315327    4.5729943367
N        3.8305158249   -2.4566041498    2.6234258179
O       -1.3024015951    0.7896504344    2.0184662635
O        4.9993799269   -3.2832628371    4.3915802107
O       -0.4550501610   -0.0781316294    3.9212259545
H        2.0473837810   -0.7824159022   -1.2206112995
H        0.0767944996    0.2148723261   -0.0268830171
H        3.7522961140   -2.0427653887    0.0490900040
H        1.6377427693   -1.2111763858    3.7103683778
H        2.8298913207   -3.7905930768    5.3845491323
H        1.8889064139   -3.4010503822    4.0174190034
H        4.7464466561   -2.4276720588    2.1909391239
H       -1.2523615808    0.3763831845    4.2537560822
21   
Generated by ForceBalance from scan.xyz: Frame 14 of 24
C        1.9265654221   -0.9420747151   -0.1374037344
C        0.8264647227   -0.3805098655    0.5116218811
C        2.9194663816   -1.5965799002    0.5916106836
C        1.7520820543   -1.0931206167    2.6526687951
C        0.7456371429   -0.4623419978    1.9076285798
C        2.8414160708   -1.6820184321    1.9939304004
C       -0.4293115103    0.1616781947    2.5762181600
C        3.9129927594   -3.0131883115    3.8911605463
N        2.6913864325   -3.2439522833    4.5027011258
N        3.8898461288   -2.3262039778    2.6810058319
O       -1.3214882264    0.7598288075    2.0020107321
O        4.9802442939   -3.3732768767    4.3790378744
O       -0.4255876812   -0.0019258339    3.9284423677
H        2.0079044991   -0.8849573394   -1.2192560031
H        0.0361262841    0.1204958678   -0.0370552278
H        3.7621473312   -2.0526312377    0.0769026369
H        1.6962849858   -1.0961350576    3.7337028980
H        2.7669450287   -3.9283691508    5.2460756454
H        1.8728408965   -3.3480149245    3.9135633604
H        4.8080201996   -2.3025261805    2.2541029606
H       -1.2271798043    0.4498349100    4.2544244327
21   
Generated by ForceBalance from scan.xyz: Frame 15 of 24
C        1.9009327762   -1.0013666643   -0.1173514980
C        0.7948340618   -0.4457081126    0.5259125653
C        2.9254928609   -1.5942384561    0.6223655354
C        1.7757234760   -1.0307130903    2.6780534635
C        0.7362744777   -0.4665901990    1.9259378394
C        2.8696877754   -1.6194092522    2.0269641476
C       -0.4472865788    0.1509047595    2.5855407241
C        3.9358463794   -3.0255627558    3.8559375250
N        2.7010686465   -3.3075528604    4.4148536744
N        3.9449979188   -2.1852508469    2.7442555911
O       -1.3687419703    0.6902495145    1.9995599441
O        4.9895227458   -3.4533111619    4.3178512599
O       -0.4142329768    0.0537368184    3.9434441599
H        1.9624582174   -0.9888013352   -1.2019386646
H       -0.0188171637    0.0066582003   -0.0310048403
H        3.7737563898   -2.0475177210    0.1145236344
H        1.7414212703   -0.9917050247    3.7599596871
H        2.7488286752   -4.0756695746    5.0734295483
H        1.8851958830   -3.3097426160    3.8135975864
H        4.8585035002   -2.1648715791    2.3072086243
H       -1.2248957017    0.4935791203    4.2632983553
21   
Generated by ForceBalance from scan.xyz: Frame 16 of 24
C        1.8779819675   -1.0771562092   -0.0850020031
C        0.7700667473   -0.5133906870    0.5473070803
C        2.9263282568   -1.6092852760    0.6695618583
C        1.7930438202   -0.9623175663    2.7106128088
C        0.7294101630   -0.4619286841    1.9478957162
C        2.8881145229   -1.5617310283    2.0728067299
C       -0.4594737103    0.1630848530    2.5906025879
C        3.9606655745   -3.0489157072    3.8080422174
N        2.7185631640   -3.4033040730    4.3015836233
N        3.9809615022   -2.0570143684    2.8244470684
O       -1.4048687518    0.6411476940    1.9898301359
O        5.0089464151   -3.5236644662    4.2343637666
O       -0.4001071525    0.1499820918    3.9505379840
H        1.9228108108   -1.1183922634   -1.1697001699
H       -0.0610344444   -0.1074574439   -0.0197630094
H        3.7780686744   -2.0697632425    0.1743442525
H        1.7767785808   -0.8764285143    3.7909508534
H        2.7487122881   -4.2482494610    4.8584792056
H        1.9052725515   -3.3035860861    3.7060360798
H        4.8955187381   -2.0026746799    2.3913371626
H       -1.2173973271    0.5855390549    4.2592777108
21   
Generated by ForceBalance from scan.xyz: Frame 17 of 24
C        1.8520325827   -1.1740148622   -0.0284020938
C        0.7459177284   -0.5808335177    0.5795016322
C        2.9143497533   -1.6476249010    0.7472357019
C        1.7929736778   -0.8854565438    2.7542259578
C        0.7160566513   -0.4420029369    1.9748604224
C        2.8871691217   -1.5109665336    2.1437464152
C       -0.4733902134    0.2108878033    2.5881174510
C        3.9896360732   -3.0736384174    3.7631463857
N        2.7490817012   -3.5410939108    4.1540062283
N        3.9871966572   -1.9452077616    2.9350647468
O       -1.4294093722    0.6383207246    1.9663176693
O        5.0439314655   -3.5608484692    4.1586167358
O       -0.4001508731    0.2871037007    3.9447547832
H        1.8853998807   -1.2816364304   -1.1089288006
H       -0.0939150848   -0.2174734957   -0.0036868555
H        3.7671158270   -2.1294834546    0.2748414896
H        1.7875720612   -0.7458331977    3.8294336103
H        2.7886894619   -4.4534194539    4.5903030549
H        1.9455774394   -3.3704934956    3.5619255879
H        4.9084585551   -1.8045833766    2.5354400767
H       -1.2198223389    0.7315190604    4.2340038363
21   
Generated by ForceBalance from scan.xyz: Frame 18 of 24
C        1.8718522934   -0.7731103247   -0.2344800644
C        0.7865453349   -0.4107246233    0.5633750372
C        3.0336086381   -1.2894689538    0.3480944298
C        2.0158323591   -1.1137977000    2.5392251687
C        0.8602048418   -0.5771080376    1.9541374330
C        3.1094887198   -1.4600248123    1.7375741006
C       -0.3207270781   -0.1848339695    2.7710885057
C        4.5019727560   -3.3872733543    2.4879038369
N        3.7329000836   -4.2146830178    1.6895104989
N        4.2944218582   -2.0168057749    2.3107998734
O       -1.3584230823    0.2667190301    2.3213597963
O        5.3665269300   -3.8076555584    3.2503622255
O       -0.1349267733   -0.3808439825    4.1052267612
H        1.8207746370   -0.6438038927   -1.3118871987
H       -0.1203060097    0.0006591799    0.1317739261
H        3.8913033500   -1.5639921116   -0.2591243929
H        2.0642369889   -1.2611579472    3.6132552065
H        3.7709130530   -5.1867181524    1.9677786477
H        2.8367400829   -3.8857941306    1.3526501369
H        4.7323269437   -1.4879325436    3.0570087021
H       -0.9619395117   -0.0935533024    4.5372269405
21   
Generated by ForceBalance from scan.xyz: Frame 19 of 24
C        1.8421698188   -0.8696941179   -0.1965539224
C        0.7667953645   -0.4288661708    0.5751205758
C        2.9864021126   -1.3874509120    0.4170074677
C        1.9664740411   -1.0685111927    2.5915787978
C        0.8336675572   -0.5220004179    1.9726577178
C        3.0504454098   -1.4942154886    1.8150087721
C       -0.3330368729   -0.0432703482    2.7635682709
C        4.5518872283   -3.3944850420    2.4498327851
N        3.9332435218   -4.1873923386    1.4988498991
N        4.2134162792   -2.0379988957    2.4302350006
O       -1.3485515023    0.4319776946    2.2884127706
O        5.4004934099   -3.8212557142    3.2260343766
O       -0.1619482284   -0.1863516544    4.1066689167
H        1.8011319519   -0.7931217033   -1.2794739697
H       -0.1239309885   -0.0097736134    0.1184567107
H        3.8394178626   -1.7076980795   -0.1741080068
H        2.0030278526   -1.1613399089    3.6722331632
H        4.0627459504   -5.1764410535    1.6714520057
H        3.0162518071   -3.9211774395    1.1611211630
H        4.5348026484   -1.5807015051    3.2761135129
H       -0.9777664549    0.1557915239    4.5195166934
21   
Generated by ForceBalance from scan.xyz: Frame 20 of 24
C        1.7962862940   -0.9495350736   -0.1576557033
C        0.7313526607   -0.4608682346    0.5992426648
C        2.9231078708   -1.4894930866    0.4680779484
C        1.9073806286   -1.0948597093    2.6312131867
C        0.7943874682   -0.5258158476    1.9983666288
C        2.9791193512   -1.5770483211    1.8691747530
C       -0.3562824649    0.0071626065    2.7779810997
C        4.6241850464   -3.4152289762    2.3851033623
N        4.1236523180   -4.1693762166    1.3364799748
N        4.1180077828   -2.1207319572    2.5142068708
O       -1.3586034099    0.4993740742    2.2922396569
O        5.5036750931   -3.8209787641    3.1381101416
O       -0.1871896167   -0.1053926376    4.1245573060
H        1.7638344034   -0.8905221224   -1.2420289977
H       -0.1445049775   -0.0240851313    0.1309054303
H        3.7687335687   -1.8350273951   -0.1187116787
H        1.9371417389   -1.1634527486    3.7139143558
H        4.3756166022   -5.1471209117    1.4151289911
H        3.1753189736   -3.9947525533    1.0249563801
H        4.3749508764   -1.7198180214    3.4087788007
H       -0.9923498110    0.2711880675    4.5282021601
21   
Generated by ForceBalance from scan.xyz: Frame 21 of 24
C        1.7657552471   -0.9980246046   -0.1414431277
C        0.7112624400   -0.4611093752    0.5963446058
C        2.8654426699   -1.5742863400    0.4999416959
C        1.8448023950   -1.1111503174    2.6472124088
C        0.7604252111   -0.5096984021    1.9967116700
C        2.9033367121   -1.6506925877    1.9032832587
C       -0.3750447265    0.0772347008    2.7596054389
C        4.6787848255   -3.4078019558    2.3458050325
N        4.2720171549   -4.1377895356    1.2389154526
N        4.0062175805   -2.2120966628    2.5844885456
O       -1.3575590580    0.5930466689    2.2580537855
O        5.6057109388   -3.7577067530    3.0697617302
O       -0.2173779687   -0.0137282907    4.1095008180
H        1.7488600860   -0.9489256734   -1.2267167691
H       -0.1429778785    0.0015823874    0.1134529876
H        3.7030517438   -1.9495300582   -0.0788793512
H        1.8619671823   -1.1632872855    3.7311376437
H        4.6500205153   -5.0777494424    1.2511372187
H        3.2992144808   -4.0774348614    0.9596885621
H        4.2378440155   -1.8307617046    3.4938540525
H       -1.0117649500    0.3980910833    4.4998091100
21   
Generated by ForceBalance from scan.xyz: Frame 22 of 24
C        1.8651805197   -0.9986646495   -0.1603150612
C        0.7494921338   -0.5050675689    0.5179753442
C        2.9925914832   -1.4492307022    0.5292645470
C        1.8873070029   -0.9325381888    2.6218457325
C        0.7677319125   -0.4712252498    1.9191980665
C        3.0057154856   -1.4165310138    1.9349891950
C       -0.3797647684    0.0376432969    2.7143539685
C        5.0320242104   -2.8191702159    2.3332231191
N        5.9165510802   -3.1395946895    3.3642013800
N        4.1249443301   -1.8263542000    2.6949180857
O       -0.4176728708    0.0918662861    3.9323009570
O        5.0523574768   -3.3814401939    1.2458926249
O       -1.4234448066    0.4550378100    1.9455271940
H        1.8644313797   -1.0325170441   -1.2463576868
H       -0.1215008278   -0.1521152254   -0.0224142232
H        3.8483281661   -1.8389287843   -0.0059145161
H        1.8641480054   -0.9028970853    3.7083172137
H        6.6853574866   -3.7117195678    3.0343914073
H        6.2092509918   -2.3862999373    3.9767028920
H        4.0331797677   -1.6639333848    3.6905035971
H       -2.1069906434    0.7616138803    2.5711295517
21   
Generated by ForceBalance from scan.xyz: Frame 23 of 24
C        1.8364274440   -1.0327235501   -0.1526616324
C        0.7399499348   -0.4965297742    0.5234472090
C        2.9453147941   -1.5314246329    0.5350237020
C        1.8627178622   -0.9635565443    2.6268929327
C        0.7604008478   -0.4641323782    1.9250149177
C        2.9610773842   -1.4972325860    1.9414657288
C       -0.3657448693    0.0887632133    2.7215283650
C        5.0966910739   -2.7647756887    2.3023860174
N        5.9552196946   -3.1110940418    3.3478631618
N        4.0485917251   -1.9533202302    2.7163601208
O       -0.4003038528    0.1453711080    3.9395140999
O        5.2542553619   -3.1755713382    1.1588081885
O       -1.3936769493    0.5446663706    1.9536748053
H        1.8350691736   -1.0671569758   -1.2387500689
H       -0.1168668354   -0.1107998740   -0.0171229877
H        3.7845508492   -1.9557855495    0.0010625080
H        1.8430987943   -0.9246488107    3.7132374908
H        6.8053958650   -3.5428638597    3.0045153015
H        6.1203913836   -2.4154079532    4.0668445744
H        3.9121831027   -1.8809841368    3.7169249443
H       -2.0641997031    0.8779586508    2.5797127444
21   
Generated by ForceBalance from scan.xyz: Frame 24 of 24
C        1.8213485824   -1.0825197303   -0.1641617123
C        0.7426196698   -0.5086092553    0.5090697134
C        2.9097520677   -1.6225067686    0.5256379489
C        1.8460356526   -1.0092915873    2.6147929302
C        0.7614866502   -0.4760884658    1.9108672330
C        2.9250541097   -1.5859264136    1.9322664894
C       -0.3452829494    0.1178417805    2.7051336943
C        5.1488708789   -2.7058327953    2.2833655809
N        5.9890337081   -3.0722001408    3.3380727364
N        3.9821420855   -2.0942820767    2.7146182130
O       -0.3792282464    0.1787013213    3.9229649254
O        5.4195029242   -2.9526003602    1.1134254451
O       -1.3559379454    0.6072851392    1.9351977701
H        1.8210826763   -1.1176304020   -1.2502591500
H       -0.0993215857   -0.0938973997   -0.0333923493
H        3.7376213955   -2.0724542875   -0.0049798149
H        1.8288227842   -0.9626498101    3.7008605806
H        6.9009977491   -3.3599887448    3.0022857571
H        6.0357782832   -2.4493420422    4.1369221034
H        3.8133935357   -2.0936509273    3.7124875306
H       -2.0146405043    0.9660931066    2.5596801987
