28   
Generated by ForceBalance from scan.xyz: Frame 1 of 24
C        2.8119849977   -1.7001293561    2.0149821621
C        1.7931655520   -1.0269676178    2.6885916212
C        1.8429468941   -1.0703433834   -0.0810664238
C        0.8228835914   -0.3980587771    0.5928957794
C        2.8662109661   -1.7527503413    0.6072317929
C        0.7696060299   -0.3442049418    2.0002039789
C        4.0433121526   -2.2025255707   -1.4891711829
C        5.0869832266   -2.7770454248    0.6662768704
C       -1.4321674639    0.7177772862    1.9308089190
C       -0.4413186052    0.0607738088    4.0862587239
N        3.8678092459   -2.4743705003   -0.0702393513
N       -0.2317422614    0.3759692887    2.6803008147
H        3.5666958804   -2.1966669781    2.6139430719
H        1.8161858258   -1.0376316668    3.7721447178
H        1.8202598590   -1.0586193876   -1.1645640203
H        0.0673215275    0.0965338230   -0.0064517789
H        4.8526538823   -2.8260550997   -1.8749850106
H        4.2852169619   -1.1473572586   -1.7031061355
H        3.1397333127   -2.4650643565   -2.0480724096
H        5.7779149984   -3.3102470222    0.0098224194
H        4.8762337343   -3.4361995145    1.5140484605
H        5.5957384924   -1.8763647814    1.0495350960
H       -2.1220969639    1.2535923672    2.5862174516
H       -1.9542496397   -0.1641960188    1.5222542177
H       -1.1926638482    1.3876765002    1.0992484440
H       -1.2556197395    0.6772487205    4.4729545996
H        0.4499269021    0.2994964916    4.6746827618
H       -0.6942086740   -0.9990086145    4.2599784205
28   
Generated by ForceBalance from scan.xyz: Frame 2 of 24
C        2.8366300776   -1.6493166323    1.9829839825
C        1.8196868661   -0.9737406985    2.6613855733
C        1.7777722747   -1.1456411111   -0.1024834659
C        0.7668074350   -0.4652677434    0.5727682570
C        2.8428854737   -1.7679160726    0.5800211464
C        0.7585056268   -0.3478229197    1.9790411429
C        4.1636899663   -2.0318375820   -1.4604080846
C        4.9884568404   -2.9333965057    0.6611306241
C       -1.4811466159    0.6363648600    1.9423067181
C       -0.3755263040    0.1480074466    4.0878962250
N        3.8386466136   -2.4909857955   -0.1134652169
N       -0.2389272309    0.3782815646    2.6569928062
H        3.6273434170   -2.0905762078    2.5782505225
H        1.8789931401   -0.9342363337    3.7428396522
H        1.7140223426   -1.1974213928   -1.1836914140
H       -0.0224113180   -0.0197500445   -0.0216439161
H        4.9649280541   -2.6545532950   -1.8650958567
H        4.4910831347   -0.9790065177   -1.4870441507
H        3.3065440162   -2.1404620835   -2.1299706573
H        5.6523262148   -3.5114403029    0.0140636937
H        4.6704329519   -3.5935686526    1.4734133026
H        5.5690812856   -2.1023059981    1.0988143601
H       -2.1607307691    1.1879695084    2.5953801143
H       -1.9890713966   -0.2846796997    1.6096111061
H       -1.3009098611    1.2630027905    1.0635192702
H       -1.1927722712    0.7619507914    4.4722825607
H        0.5325283097    0.4519425744    4.6177885718
H       -0.5838536579   -0.9058340653    4.3394518152
28   
Generated by ForceBalance from scan.xyz: Frame 3 of 24
C        2.8588044990   -1.5873058828    1.9424798066
C        1.8395173932   -0.9185693184    2.6280101153
C        1.7035059340   -1.2302944978   -0.1211967204
C        0.6954261568   -0.5496576157    0.5538691661
C        2.8226686633   -1.7629167522    0.5490998790
C        0.7370278194   -0.3602918644    1.9541612142
C        4.3097152111   -1.8754090931   -1.3911356667
C        4.8785297857   -3.0826927312    0.6302132356
C       -1.5435434635    0.5289611381    1.9577286027
C       -0.3207215588    0.2329879387    4.0777773077
N        3.8122510849   -2.4905724078   -0.1613917459
N       -0.2620669928    0.3625011890    2.6294897048
H        3.6880649643   -1.9722851455    2.5250463578
H        1.9299321838   -0.8316993469    3.7044597462
H        1.5957635283   -1.3691944695   -1.1924448218
H       -0.1378236522   -0.1733901517   -0.0281907669
H        4.9202000772   -2.6027316793   -1.9349603972
H        4.9253405079   -0.9797811323   -1.1961401865
H        3.4871042252   -1.5846452496   -2.0448149812
H        5.4978350058   -3.7055980853   -0.0214083053
H        4.4593665196   -3.7276592786    1.4075630512
H        5.5364655830   -2.3371655354    1.1128694547
H       -2.2189641685    1.0857694380    2.6105340925
H       -2.0230995098   -0.4294872870    1.6974525196
H       -1.4290480713    1.1137902968    1.0398623490
H       -1.1414438697    0.8444345364    4.4585504546
H        0.6000676200    0.6060977189    4.5368750060
H       -0.4759991830   -0.8061470829    4.4143597353
28   
Generated by ForceBalance from scan.xyz: Frame 4 of 24
C        2.8771553572   -1.5325853350    1.9134454627
C        1.8622497258   -0.8590386627    2.6017172576
C        1.6365602069   -1.3199641437   -0.1224110705
C        0.6337596370   -0.6297521689    0.5498308365
C        2.7910836809   -1.7811064496    0.5361266551
C        0.7218535578   -0.3668923262    1.9375247466
C        4.4028046740   -1.7290386767   -1.2860099460
C        4.7771781183   -3.2038187165    0.5874542311
C       -1.5775454141    0.4748963094    1.9725372877
C       -0.2768545106    0.3118763864    4.0651748146
N        3.7824104764   -2.4918359607   -0.2005326878
N       -0.2737404257    0.3584807297    2.6107033075
H        3.7394685619   -1.8687819026    2.4795793589
H        1.9834879866   -0.7151721055    3.6689414177
H        1.5088585094   -1.5290228572   -1.1812761073
H       -0.2326053279   -0.3098885225   -0.0172997169
H        4.9808848679   -2.4068760854   -1.9228772172
H        5.0797490806   -0.9407021834   -0.9108053763
H        3.6405202365   -1.2535249447   -1.9049351059
H        5.3677829264   -3.8393184250   -0.0799310164
H        4.2836219378   -3.8482779843    1.3200489443
H        5.4786097831   -2.5378996332    1.1232526324
H       -2.2441469452    1.0439354084    2.6236263760
H       -2.0453992720   -0.5017092264    1.7646729955
H       -1.5020682054    1.0249999261    1.0293622178
H       -1.1053778165    0.9156763765    4.4407995561
H        0.6455056042    0.7418212264    4.4683093728
H       -0.3827634715   -0.7106225592    4.4650586015
28   
Generated by ForceBalance from scan.xyz: Frame 5 of 24
C        2.9055678810   -1.4743200633    1.8639871197
C        1.8971923732   -0.7979741188    2.5574969626
C        1.5835364280   -1.4026749533   -0.1317740161
C        0.5841338465   -0.7077013857    0.5423515070
C        2.7694991967   -1.7974316183    0.5075465832
C        0.7172230738   -0.3747163510    1.9115053252
C        4.5018026415   -1.6033453118   -1.1703646892
C        4.6816149805   -3.3166948429    0.5163898876
C       -1.6022272984    0.4077653861    1.9910454385
C       -0.2240751851    0.3800261712    4.0410103385
N        3.7685461184   -2.4823260468   -0.2549630720
N       -0.2743105928    0.3516140707    2.5866561658
H        3.8004988311   -1.7607181012    2.4081263242
H        2.0507827960   -0.5968518484    3.6111631052
H        1.4393312240   -1.6661582460   -1.1767901098
H       -0.3118086782   -0.4397286083   -0.0052248979
H        5.1107917782   -2.2094434170   -1.8501117390
H        5.1681667361   -0.9016196415   -0.6364785643
H        3.8017729834   -1.0171738586   -1.7696386548
H        5.2564339889   -3.9445292479   -0.1727197532
H        4.1131727190   -3.9713899973    1.1824269244
H        5.4054592704   -2.7427608989    1.1239369906
H       -2.2599407408    0.9897077467    2.6396480405
H       -2.0513359817   -0.5883321252    1.8444810046
H       -1.5736642871    0.9157639341    1.0221163612
H       -1.0543768644    0.9818273962    4.4157652030
H        0.7000721774    0.8528708085    4.3876479334
H       -0.2888462700   -0.6228131503    4.4952091701
28   
Generated by ForceBalance from scan.xyz: Frame 6 of 24
C        2.9396954477   -1.3837827364    1.8128055913
C        1.9342084684   -0.7140314274    2.5132036570
C        1.5371803112   -1.4773967671   -0.1268109814
C        0.5324024502   -0.7921961991    0.5531217777
C        2.7596404863   -1.7869451664    0.4830278284
C        0.7078585089   -0.3818113128    1.8956629882
C        4.6271980638   -1.5161264327   -1.0211904973
C        4.5637721839   -3.4296439693    0.4491239872
C       -1.6300299246    0.3389597923    2.0184668509
C       -0.1813480001    0.4404373033    4.0243206304
N        3.7692200094   -2.4544980201   -0.2928015135
N       -0.2854764603    0.3309868941    2.5766951390
H        3.8709679140   -1.6038837970    2.3277794541
H        2.1204292097   -0.4453953637    3.5464223687
H        1.3742840675   -1.7973211102   -1.1530392173
H       -0.3961787118   -0.5908018472    0.0321033535
H        5.2709455198   -2.0705478797   -1.7134216156
H        5.2712871459   -0.9186963103   -0.3499122110
H        4.0103807112   -0.8262871573   -1.6028117691
H        5.1449455338   -4.0294224893   -0.2600760490
H        3.9003002109   -4.0994188372    1.0025982761
H        5.2774848775   -2.9781911535    1.1624982350
H       -2.2837803551    0.9229112051    2.6689947840
H       -2.0580992977   -0.6712723595    1.9128791533
H       -1.6406789714    0.8188588405    1.0346537338
H       -1.0313149339    1.0117802697    4.4020724941
H        0.7256941551    0.9830723751    4.3094078492
H       -0.1693482449   -0.5389361881    4.5302270348
28   
Generated by ForceBalance from scan.xyz: Frame 7 of 24
C        1.8338896381   -2.5347640425    1.2141717711
C        0.8377715154   -1.9194441073    1.9659037683
C        2.7146268015   -0.3942396273    0.5986237235
C        1.7031532852    0.2346132477    1.3314684517
C        2.8079527166   -1.7903085307    0.5294192837
C        0.7504356247   -0.5096551525    2.0571947702
C        4.8293379574   -3.1196782241    0.5990901877
C        4.3977105675   -1.7325201269   -1.3244924647
C       -0.4640743963    1.5351752595    2.6352784355
C       -1.3952676871   -0.6748380970    3.2266867724
N        3.7998074137   -2.4875871986   -0.2307128269
N       -0.2330588008    0.1127879656    2.8394466169
H        1.8535644919   -3.6192862315    1.1386429676
H        0.1125276211   -2.5496197502    2.4671362009
H        3.4290540269    0.2293261080    0.0697936308
H        1.6734647145    1.3178295336    1.3325113696
H        5.4376824508   -3.7894007405   -0.0187548161
H        4.3629169786   -3.7132806346    1.3884371286
H        5.4989727787   -2.3806979109    1.0754349710
H        4.9749371089   -2.4181397131   -1.9539809659
H        5.0830668617   -0.9311437069   -0.9918893053
H        3.6124574616   -1.2836013281   -1.9386055165
H       -1.2493596285    1.8711085298    3.3153681168
H       -0.7692236096    1.7798833946    1.6041388973
H        0.4360279465    2.1114555796    2.8708873720
H       -2.0700518874   -0.0497641226    3.8148330189
H       -1.1014412900   -1.5169868375    3.8608411754
H       -1.9539490989   -1.0723870226    2.3633821493
28   
Generated by ForceBalance from scan.xyz: Frame 8 of 24
C        1.8983052483   -2.4976931352    1.2780956912
C        0.9021304454   -1.8876932968    2.0325410276
C        2.6580471491   -0.3576423916    0.5221087722
C        1.6446400888    0.2625322928    1.2610091109
C        2.8139416402   -1.7513377139    0.5131196319
C        0.7517645469   -0.4808802482    2.0567909234
C        4.7155696650   -3.2728999427    0.5102506935
C        4.5143922491   -1.6193600440   -1.2370705140
C       -0.5331325981    1.5354206442    2.5747001364
C       -1.3488220388   -0.6783793283    3.2999176460
N        3.8010527524   -2.4271208099   -0.2597211882
N       -0.2316122267    0.1377293211    2.8453477025
H        1.9503900714   -3.5830363105    1.2627776257
H        0.2266596009   -2.5235565499    2.5928917653
H        3.3251351790    0.2739222086   -0.0549060561
H        1.5709938430    1.3425799992    1.2115368771
H        5.2834888880   -3.9114989457   -0.1743900211
H        4.1601445650   -3.9200576534    1.1903476457
H        5.4306136991   -2.6808469571    1.1089883383
H        5.1198425359   -2.2793817671   -1.8660462903
H        5.1923784254   -0.8721134040   -0.7849737216
H        3.8031355295   -1.0961717454   -1.8821013935
H       -1.3140842040    1.8720887297    3.2594971805
H       -0.8770456723    1.7118294596    1.5415910491
H        0.3460102239    2.1625588904    2.7532281999
H       -2.0339568195   -0.0552386597    3.8782123683
H       -1.0030879289   -1.4774787578    3.9630449713
H       -1.9128861438   -1.1385164731    2.4716468316
28   
Generated by ForceBalance from scan.xyz: Frame 9 of 24
C        1.9756466894   -2.4705505409    1.3501700748
C        0.9754116437   -1.8586401619    2.0992737028
C        2.6204930873   -0.3463986080    0.4598347043
C        1.6065230937    0.2706494394    1.1990643128
C        2.8335361067   -1.7348423884    0.5082236599
C        0.7645004985   -0.4619125918    2.0567324917
C        4.6083678983   -3.4175879678    0.3994552752
C        4.6276230353   -1.5429271363   -1.1399114736
C       -0.5898173557    1.5246432402    2.5032844987
C       -1.2975832322   -0.6763834790    3.3574886639
N        3.8201341765   -2.3870548824   -0.2739429894
N       -0.2201573968    0.1592951783    2.8455846997
H        2.0654879633   -3.5504467174    1.4096988307
H        0.3499581224   -2.4912613010    2.7183859903
H        3.2440235687    0.2857037048   -0.1619463022
H        1.4946546526    1.3441025737    1.1007023314
H        5.2240084353   -3.9373195923   -0.3405417828
H        3.9643286806   -4.1630181443    0.8669161715
H        5.2730491941   -3.0020630265    1.1767713611
H        5.2669364060   -2.1794223803   -1.7578224023
H        5.2778597253   -0.8393846744   -0.5889044301
H        3.9860997262   -0.9653031141   -1.8113717915
H       -1.3620592850    1.8698578993    3.1938900595
H       -0.9737329196    1.6249408082    1.4738241027
H        0.2667943796    2.1966630304    2.6147049122
H       -1.9925810837   -0.0543989987    3.9254049922
H       -0.9095038020   -1.4343650090    4.0448384472
H       -1.8617569774   -1.1904599000    2.5613433861
28   
Generated by ForceBalance from scan.xyz: Frame 10 of 24
C        2.0519833451   -2.4241877564    1.4170318534
C        1.0458448166   -1.8143693411    2.1635929605
C        2.5852011036   -0.3205767760    0.4101412639
C        1.5731060424    0.2908038333    1.1530816149
C        2.8529316185   -1.6994318744    0.5110774003
C        0.7789663349   -0.4324382479    2.0642107682
C        4.4604624452   -3.5279591450    0.2870948317
C        4.7423887999   -1.4763980937   -1.0220124467
C       -0.6600556909    1.5097672386    2.4329237596
C       -1.2253384271   -0.6610914755    3.4484685732
N        3.8343238831   -2.3374110047   -0.2786940199
N       -0.2065334597    0.1916009050    2.8524307366
H        2.1957437865   -3.4912284773    1.5447250734
H        0.4685606160   -2.4402254338    2.8342215232
H        3.1622195674    0.3064610483   -0.2592836011
H        1.4222315889    1.3550425832    1.0141427804
H        5.2175757174   -3.8968887232   -0.4086197001
H        3.7298203052   -4.3305755695    0.4180956832
H        4.9426475486   -3.3381685492    1.2606774228
H        5.4230697465   -2.0983131195   -1.6078949428
H        5.3463206556   -0.8148475148   -0.3765089804
H        4.1860763336   -0.8515107918   -1.7269145020
H       -1.4307504073    1.8589972664    3.1233240207
H       -1.0772345432    1.5199653208    1.4115900511
H        0.1603445310    2.2329750186    2.4733575867
H       -1.9251027028   -0.0405158073    4.0122448906
H       -0.7773062061   -1.3646625871    4.1567629970
H       -1.7962772663   -1.2402381516    2.7030235798
28   
Generated by ForceBalance from scan.xyz: Frame 11 of 24
C        2.1166624167   -2.3825046164    1.4667370627
C        1.1027756998   -1.7758217282    2.2093298556
C        2.5458197831   -0.3053390767    0.3573373105
C        1.5342856071    0.3012590426    1.1009892405
C        2.8640298043   -1.6707475547    0.5070938934
C        0.7848317540   -0.4112232033    2.0596320483
C        4.3261041033   -3.5991573915    0.1512392417
C        4.8585590955   -1.4300594609   -0.8894991598
C       -0.7353153973    1.4808925369    2.3623293093
C       -1.1622733771   -0.6493409150    3.5197543191
N        3.8560638290   -2.2903839602   -0.2765714539
N       -0.2039852079    0.2137325106    2.8442860782
H        2.3092611802   -3.4337010371    1.6469450356
H        0.5663840593   -2.3917407447    2.9218177319
H        3.0812758809    0.3092840277   -0.3571649575
H        1.3434416475    1.3533330875    0.9236105336
H        5.0857729935   -3.9525911749   -0.5492615638
H        3.5089729622   -4.3271150271    0.1355671304
H        4.7631227326   -3.5950409818    1.1645873729
H        5.5765919848   -2.0485185640   -1.4322118354
H        5.4101065769   -0.8189308456   -0.1553272081
H        4.4002687890   -0.7551600640   -1.6189991877
H       -1.5034575332    1.8324469958    3.0544389287
H       -1.1804093101    1.4093111292    1.3553687732
H        0.0473375603    2.2452886446    2.3356215662
H       -1.8732569778   -0.0307406169    4.0715637114
H       -0.6590330776   -1.2904898685    4.2500310677
H       -1.7276818298   -1.2956400149    2.8269108477
28   
Generated by ForceBalance from scan.xyz: Frame 12 of 24
C        2.2009887508   -2.3133146495    1.5042223791
C        1.1838182418   -1.7149525035    2.2550357039
C        2.4307180493   -0.3086985833    0.2200698286
C        1.4309879495    0.2966555361    0.9743993281
C        2.8559407730   -1.6292167065    0.4668548299
C        0.7814625316   -0.3853455907    2.0287317787
C        4.1628445901   -3.6239489053   -0.0631090246
C        5.0535457861   -1.4387894685   -0.5857951395
C       -0.8469118627    1.4261707243    2.2705503798
C       -1.0397215773   -0.6113009470    3.6449798810
N        3.8471324695   -2.2333466807   -0.3516160710
N       -0.1997886914    0.2412094337    2.8168148597
H        2.4723312850   -3.3337873182    1.7494282581
H        0.7164490361   -2.3082172516    3.0322548128
H        2.8669970056    0.2580109199   -0.5966087075
H        1.1522303543    1.3130573625    0.7216559472
H        4.8549386093   -3.9937803599   -0.8248959140
H        3.2578110268   -4.2358416733   -0.1108552048
H        4.6335814466   -3.7729235605    0.9256443461
H        5.6573607518   -1.9229812693   -1.3593456124
H        5.6708234222   -1.3321136507    0.3233697457
H        4.8021715396   -0.4402217695   -0.9436028354
H       -1.5945263283    1.7841133339    2.9814099944
H       -1.3463005104    1.2399903486    1.3050029922
H       -0.1233929002    2.2351520157    2.1304391007
H       -1.7513579549    0.0106732778    4.1919104201
H       -0.4373168100   -1.1428220371    4.3882303298
H       -1.6059942342   -1.3584609661    3.0634299316
28   
Generated by ForceBalance from scan.xyz: Frame 13 of 24
C        2.2645308062   -2.2649915500    1.5406318893
C        1.2466601114   -1.6693542369    2.2932115117
C        2.3606915383   -0.3274182673    0.1381059364
C        1.3658717248    0.2816882727    0.8953611498
C        2.8450169298   -1.6120725571    0.4440263934
C        0.7833503018   -0.3699385283    2.0083231734
C        4.0586491467   -3.6243751679   -0.2322390210
C        5.1320760921   -1.4615999870   -0.3781247536
C       -0.9099971907    1.3871394596    2.2130227596
C       -0.9669592847   -0.5770120502    3.7048978677
N        3.8627763122   -2.1896313159   -0.3679082772
N       -0.1975089916    0.2571726082    2.7936828449
H        2.5926515560   -3.2599648883    1.8233529038
H        0.8277021502   -2.2359109931    3.1164954414
H        2.7554214428    0.1964463354   -0.7285746560
H        1.0329948168    1.2696051521    0.5991705486
H        4.7173824720   -3.9693588255   -1.0357198879
H        3.1013292180   -4.1431100664   -0.3318456426
H        4.5191579590   -3.9218492774    0.7281607391
H        5.7643687340   -1.8426967415   -1.1871078601
H        5.6838876434   -1.5655522524    0.5735164127
H        4.9616225394   -0.3985379257   -0.5554099973
H       -1.6474607133    1.7510183132    2.9313014358
H       -1.4331936651    1.1325174686    1.2763832903
H       -0.2252636796    2.2156663163    2.0076314120
H       -1.6838926288    0.0472490078    4.2420579737
H       -0.3140366616   -1.0365828062    4.4533902433
H       -1.5215304200   -1.3808958801    3.1921086962
28   
Generated by ForceBalance from scan.xyz: Frame 14 of 24
C        2.3534591016   -2.2014074515    1.5808982055
C        1.3339641562   -1.6140641570    2.3354840913
C        2.3063860028   -0.3464032595    0.0661764679
C        1.3086026076    0.2596617351    0.8243308799
C        2.8553170744   -1.5867624815    0.4259648203
C        0.7971282505   -0.3553487903    1.9918020611
C        3.9953543704   -3.5909872743   -0.3900972245
C        5.2056709018   -1.5006943561   -0.1695723725
C       -0.9541665366    1.3474400877    2.1726371034
C       -0.8872786855   -0.5474087828    3.7578010630
N        3.9051067468   -2.1379245528   -0.3735951466
N       -0.1872866519    0.2650913399    2.7737196849
H        2.7442461665   -3.1631828336    1.9006143228
H        0.9703096313   -2.1486667612    3.2050902812
H        2.6617030636    0.1399112714   -0.8391200118
H        0.9183706918    1.2132132463    0.4885103773
H        4.6572268742   -3.8978547094   -1.2074184830
H        3.0061583538   -4.0199058178   -0.5707504046
H        4.3991312225   -4.0263303176    0.5430238370
H        5.8971435190   -1.8169139204   -0.9586634562
H        5.6541224161   -1.7559555611    0.8083288532
H        5.1013361367   -0.4146714529   -0.2210123669
H       -1.6862469161    1.7110050442    2.8963350018
H       -1.4908873674    1.0401674354    1.2600346420
H       -0.3048176839    2.1912816125    1.9194161932
H       -1.6177004497    0.0736892837    4.2799566991
H       -0.1912444990   -0.9299730933    4.5108403390
H       -1.4167276137   -1.4054623138    3.3112264918
28   
Generated by ForceBalance from scan.xyz: Frame 15 of 24
C        2.4528573438   -2.1139378166    1.6173477003
C        1.4296211383   -1.5411119904    2.3743285513
C        2.2477364110   -0.3644692511   -0.0054529256
C        1.2361703733    0.2294297579    0.7478777048
C        2.8773027065   -1.5437314431    0.4095446538
C        0.8043126273   -0.3402539793    1.9683983827
C        3.8993509627   -3.5306933549   -0.5736012769
C        5.2645632589   -1.6180595069    0.0309051698
C       -1.0235505367    1.2827632652    2.1202883375
C       -0.8081275278   -0.5198595742    3.8031512355
N        3.9433682812   -2.0836912923   -0.3899269353
N       -0.1893968511    0.2660113035    2.7454130229
H        2.9139971785   -3.0308468845    1.9757784016
H        1.1284364609   -2.0361476493    3.2900646983
H        2.5562888938    0.0829644018   -0.9469528751
H        0.7785917464    1.1363940976    0.3707234353
H        4.6014758811   -3.8126466765   -1.3664385157
H        2.8943172288   -3.8299252051   -0.8825609931
H        4.1710275557   -4.1082640837    0.3294919320
H        6.0122669014   -1.9156977723   -0.7132383922
H        5.5723868480   -2.0250941737    1.0122604078
H        5.2648208940   -0.5271676779    0.1015228562
H       -1.7523153631    1.6442164879    2.8481802758
H       -1.5693644859    0.9087437715    1.2387906038
H       -0.4224129632    2.1433260847    1.8102228900
H       -1.5597927006    0.0895811834    4.3083333924
H       -0.0682118467   -0.8099922047    4.5557374461
H       -1.2966564316   -1.4349544487    3.4300915843
28   
Generated by ForceBalance from scan.xyz: Frame 16 of 24
C        2.5835706564   -1.9875276603    1.6685162057
C        1.5462269042   -1.4389797446    2.4217810435
C        2.2128388230   -0.3641563329   -0.0534469458
C        1.1743024329    0.1996782733    0.6887928755
C        2.9371390836   -1.4625449172    0.4178057365
C        0.8205074385   -0.3169377687    1.9564529158
C        3.8097502473   -3.4008377695   -0.7557426350
C        5.3283676961   -1.7658920288    0.1950819477
C       -1.1044093274    1.1934320015    2.0717719031
C       -0.7286740302   -0.4936413674    3.8460675114
N        4.0068002308   -2.0000450882   -0.3866869750
N       -0.1930780497    0.2644972276    2.7244805535
H        3.1195328221   -2.8466955745    2.0656972317
H        1.3080703667   -1.8900909714    3.3779074347
H        2.4712300359    0.0454440962   -1.0264608726
H        0.6416515023    1.0452784808    0.2700603331
H        4.5647248560   -3.6888173746   -1.4962443797
H        2.8213959555   -3.5231308758   -1.2071011673
H        3.8886952270   -4.1019478853    0.0957818837
H        6.1001457965   -2.0492912524   -0.5297828759
H        5.5077554605   -2.3369997760    1.1250601317
H        5.4434104372   -0.7025650562    0.4222708103
H       -1.8347829630    1.5494599693    2.8006481160
H       -1.6490228068    0.7396614116    1.2278404553
H       -0.5654879139    2.0701481764    1.6988015188
H       -1.5124181138    0.0910670277    4.3311567541
H        0.0464753881   -0.6803660440    4.5960708355
H       -1.1561635418   -1.4636102405    3.5440990594
28   
Generated by ForceBalance from scan.xyz: Frame 17 of 24
C        2.6950491417   -1.8615344955    1.7453043500
C        1.6382584681   -1.3305748569    2.4844878195
C        2.1899403923   -0.3799292207   -0.0683182218
C        1.1229259820    0.1553362464    0.6537594636
C        2.9977402696   -1.3911939026    0.4600667854
C        0.8281548399   -0.2958465885    1.9609532910
C        3.7326618428   -3.2350983530   -0.9174649260
C        5.3609862299   -1.9511323797    0.3316827777
C       -1.1939183046    1.0845253693    2.0166430476
C       -0.6737708898   -0.4478446753    3.8902492082
N        4.0655111754   -1.9289248319   -0.3462052097
N       -0.2081210701    0.2691490744    2.7117284568
H        3.2897914948   -2.6588692361    2.1848975154
H        1.4485437140   -1.7308571299    3.4735202940
H        2.4091132870   -0.0126912626   -1.0676063053
H        0.5277569853    0.9342475681    0.1920495942
H        4.5101113025   -3.5294549167   -1.6317741396
H        2.7811332430   -3.1689292037   -1.4520426694
H        3.6446392180   -4.0329607943   -0.1567854823
H        6.1443919630   -2.1855382905   -0.3979989960
H        5.4282758057   -2.6965919890    1.1453386759
H        5.5685734874   -0.9643134367    0.7538398997
H       -1.9331586342    1.4420926125    2.7358163821
H       -1.7218753822    0.5351570494    1.2201790783
H       -0.7241847730    1.9664551072    1.5699501208
H       -1.4831502599    0.1174790562    4.3559329376
H        0.1257477907   -0.5382646730    4.6322876459
H       -1.0452185674   -1.4596013596    3.6593656212
28   
Generated by ForceBalance from scan.xyz: Frame 18 of 24
C        2.7828014418   -1.7593155652    1.8215213693
C        1.7092911880   -1.2322093565    2.5420777714
C        2.1757769593   -0.4269220751   -0.0742765590
C        1.0890241993    0.0931241663    0.6258987338
C        3.0469309178   -1.3581598908    0.5050378662
C        0.8357946847   -0.2831309732    1.9658752086
C        3.7124653052   -3.0685536403   -1.0634168745
C        5.3568900877   -2.1406093481    0.4408361757
C       -1.2592857508    0.9854834008    1.9622954267
C       -0.6274721516   -0.3821719998    3.9268791100
N        4.1182856219   -1.8912505040   -0.2914066876
N       -0.2197359443    0.2769197529    2.6947150987
H        3.4213582058   -2.4930636831    2.3060447842
H        1.5574241308   -1.5730675448    3.5595450428
H        2.3638603930   -0.1063476433   -1.0960201838
H        0.4485292187    0.8086493440    0.1238659580
H        4.5089814090   -3.3377975803   -1.7662928486
H        2.8101046095   -2.8417810442   -1.6369461409
H        3.5018992151   -3.9455733830   -0.4238685862
H        6.1623609036   -2.3334130354   -0.2764357835
H        5.3081226488   -3.0084383394    1.1239169083
H        5.6222693104   -1.2560399801    1.0257964539
H       -2.0087547119    1.3494751808    2.6675641381
H       -1.7652431096    0.3540371986    1.2136235754
H       -0.8468721268    1.8598536124    1.4489280076
H       -1.4635240428    0.1654587092    4.3658608802
H        0.1853224527   -0.3738098179    4.6601684104
H       -0.9403914084   -1.4278534966    3.7724702251
28   
Generated by ForceBalance from scan.xyz: Frame 19 of 24
C        2.8363185564   -1.6787653059    1.8803399591
C        1.7566798457   -1.1443071247    2.5895129860
C        2.1440385580   -0.4860324795   -0.0774266862
C        1.0531617894    0.0342608029    0.6127264546
C        3.0611728700   -1.3535776308    0.5360438759
C        0.8370087120   -0.2668865093    1.9784381616
C        3.7302097953   -2.9053015727   -1.1978005534
C        5.3101723524   -2.3049386296    0.5219036421
C       -1.3188532371    0.8935526715    1.9345277632
C       -0.5874645501   -0.3025736294    3.9680875095
N        4.1441852164   -1.8759830755   -0.2403688784
N       -0.2261224387    0.3025023704    2.6942562811
H        3.5061457547   -2.3581994533    2.3986966388
H        1.6397195682   -1.4278240373    3.6288973717
H        2.2992938880   -0.2090011391   -1.1173424926
H        0.3807260501    0.6977652620    0.0817811462
H        4.5579551740   -3.1229514801   -1.8817419394
H        2.8834262369   -2.5501818155   -1.7890267952
H        3.4317162159   -3.8464296166   -0.7009677989
H        6.1405297964   -2.4823939243   -0.1698365800
H        5.1510223273   -3.2372815945    1.0945138921
H        5.6080905683   -1.5172219244    1.2190413531
H       -2.0698552770    1.2763655576    2.6283340193
H       -1.8078726562    0.1772027820    1.2537597194
H       -0.9659952830    1.7426378905    1.3411381771
H       -1.4291260403    0.2442144023    4.3977221935
H        0.2407035722   -0.2318608182    4.6801007405
H       -0.8725555949   -1.3638463475    3.8763172055
28   
Generated by ForceBalance from scan.xyz: Frame 20 of 24
C        2.8682431328   -1.6224515278    1.9266925569
C        1.7868486392   -1.0759740701    2.6252926591
C        2.1058587444   -0.5661198518   -0.0814647618
C        1.0165175416   -0.0356167448    0.6017228804
C        3.0596000025   -1.3776908296    0.5589459315
C        0.8314435374   -0.2618635136    1.9860185851
C        3.8010111961   -2.7547920873   -1.3071688555
C        5.2548488180   -2.4507116793    0.5951189313
C       -1.3614042538    0.8251690857    1.9164159660
C       -0.5536953632   -0.2212684250    4.0019068570
N        4.1632372395   -1.8868882810   -0.1846487522
N       -0.2351829332    0.3204080003    2.6890133753
H        3.5616703129   -2.2522197996    2.4740813104
H        1.6992310306   -1.3028663131    3.6813869940
H        2.2272427352   -0.3312160330   -1.1356192079
H        0.3184491035    0.5798566570    0.0464239785
H        4.6799228312   -2.9169811124   -1.9399289935
H        3.0273838232   -2.2887038708   -1.9190787000
H        3.4260763268   -3.7386095277   -0.9722769738
H        6.1015147668   -2.6443787876   -0.0709690387
H        4.9978405510   -3.4028905371    1.0949699633
H        5.5792730918   -1.7363888394    1.3567604029
H       -2.1134072638    1.2239734150    2.6001626943
H       -1.8367698956    0.0519917090    1.2900020837
H       -1.0497538048    1.6478975595    1.2654665646
H       -1.4068358879    0.3204116040    4.4151994651
H        0.2836006813   -0.0808869958    4.6928329931
H       -0.8025219612   -1.2954730225    3.9774483807
28   
Generated by ForceBalance from scan.xyz: Frame 21 of 24
C        2.8979045831   -1.5731761954    1.9515440688
C        1.8211873051   -1.0140946994    2.6464579876
C        2.0534273792   -0.6595979423   -0.0913197098
C        0.9724906607   -0.1130472570    0.5936423952
C        3.0504686406   -1.4084358281    0.5643627937
C        0.8292499030   -0.2594463707    1.9920931825
C        3.8727766462   -2.5994046906   -1.4101698194
C        5.1815964863   -2.6036857431    0.6281687497
C       -1.3964312838    0.7568067993    1.9222289489
C       -0.5062158777   -0.1446080559    4.0372994001
N        4.1656271034   -1.9152998312   -0.1516798080
N       -0.2330875351    0.3390873345    2.6918912145
H        3.6148741336   -2.1552986402    2.5192980192
H        1.7679639261   -1.1859885343    3.7152158614
H        2.1227150321   -0.4797978643   -1.1595563125
H        0.2437122133    0.4488221922    0.0211470824
H        4.8096614632   -2.7841366400   -1.9444086514
H        3.2451048732   -1.9837449973   -2.0548232158
H        3.3623457520   -3.5663919476   -1.2565025867
H        6.0311406077   -2.8319376747   -0.0216782226
H        4.8298361882   -3.5524519913    1.0729387425
H        5.5422321041   -1.9578271831    1.4335796521
H       -2.1396781713    1.1809559234    2.6004878048
H       -1.8665907605   -0.0709149092    1.3649709756
H       -1.1289995423    1.5410501032    1.2074334428
H       -1.3582079031    0.4013602965    4.4476603465
H        0.3462275992    0.0442541570    4.6972677768
H       -0.7349126090   -1.2232742187    4.0715175989
28   
Generated by ForceBalance from scan.xyz: Frame 22 of 24
C        2.9526116687   -1.4999365852    1.9776577843
C        1.8714525478   -0.9375416420    2.6592665846
C        2.0221491925   -0.7672928755   -0.1007718164
C        0.9396368231   -0.2106949341    0.5774342382
C        3.0741478826   -1.4160873941    0.5771178379
C        0.8375754077   -0.2600463039    1.9838916587
C        3.9533512159   -2.4079247872   -1.4780858032
C        5.1145265296   -2.7582228423    0.6479650284
C       -1.4231090649    0.6726618883    1.9066458981
C       -0.4585672724   -0.0659826145    4.0488202502
N        4.1888230480   -1.9361232531   -0.1171234333
N       -0.2281001901    0.3488832316    2.6726627215
H        3.7020474187   -2.0146334927    2.5672730578
H        1.8473807676   -1.0457322131    3.7374101480
H        2.0348614370   -0.6827802711   -1.1816357148
H        0.1690660453    0.2691666484   -0.0146642461
H        4.8864739654   -2.8063365835   -1.8831205831
H        3.6476123407   -1.5863337265   -2.1309947894
H        3.1836164320   -3.1960811115   -1.5314640618
H        5.9456745005   -3.0525318912    0.0029130188
H        4.6528511678   -3.6740211359    1.0573804519
H        5.5353896815   -2.1858514998    1.4797723856
H       -2.1630394149    1.1221540715    2.5722629482
H       -1.8796948976   -0.2075434364    1.4228947165
H       -1.1984408629    1.4104620945    1.1303410060
H       -1.3168880642    0.4789916102    4.4474207510
H        0.4016648961    0.1831820429    4.6777452467
H       -0.6558107124   -1.1469543062    4.1486388653
28   
Generated by ForceBalance from scan.xyz: Frame 23 of 24
C        2.9678824416   -1.4401363509    2.0142805951
C        1.8865052098   -0.8708255248    2.6860908154
C        1.9704639299   -0.8610027455   -0.0829541358
C        0.8892590246   -0.2903242508    0.5892682552
C        3.0550321361   -1.4390113365    0.6071888819
C        0.8193479323   -0.2595886611    1.9965919861
C        4.0322166021   -2.2270397482   -1.4924778936
C        5.0114051143   -2.9073082119    0.6624184080
C       -1.4655402601    0.6101918820    1.9193599100
C       -0.4395596103    0.0137710430    4.0761449872
N        4.1721442356   -1.9675716918   -0.0674592088
N       -0.2468203450    0.3610594092    2.6756138411
H        3.7492429426   -1.8924125873    2.6141087043
H        1.8898480897   -0.9146456984    3.7690255898
H        1.9488671740   -0.8503173707   -1.1664614797
H        0.0916977908    0.1311381993   -0.0115241786
H        4.9714448794   -2.6314752563   -1.8758823784
H        3.8347790230   -1.2983019657   -2.0366797368
H        3.2246894997   -2.9415417780   -1.7275083021
H        5.8170813726   -3.2488220558    0.0090399995
H        4.4583540506   -3.7906798936    1.0241570424
H        5.4802523115   -2.4221551505    1.5240255848
H       -2.2030392323    1.0787831691    2.5744797395
H       -1.9089328952   -0.3074740942    1.4965519003
H       -1.2760471623    1.3073525646    1.0973853970
H       -1.3039944126    0.5574150912    4.4632857580
H        0.4255567825    0.3174977438    4.6735173288
H       -0.6065949971   -1.0650400085    4.2366409052
28   
Generated by ForceBalance from scan.xyz: Frame 24 of 24
C        2.7343004276   -1.8607252092    2.0544345300
C        1.7252482771   -1.1735069422    2.7221186355
C        1.9103977736   -1.0530362739   -0.0402846786
C        0.8861103897   -0.3728065671    0.6256066492
C        2.8625193956   -1.8216100223    0.6514972690
C        0.7715228889   -0.3951878754    2.0282812162
C        3.9197911122   -2.4521904432   -1.4580062931
C        5.2083922580   -2.5109946764    0.5930943425
C       -1.3413463553    0.8316001632    1.9237854066
C       -0.5374288221   -0.0729350213    4.0710648033
N        3.8761186424   -2.5634777475   -0.0079417138
N       -0.2219782101    0.3317897032    2.7079842014
H        3.4178480901   -2.4591127346    2.6479132984
H        1.6867280703   -1.2576203196    3.8020013233
H        1.9464232071   -0.9711414817   -1.1204054802
H        0.1815264333    0.1887464714    0.0233461833
H        4.6808228713   -3.1367664554   -1.8421372903
H        4.1634273093   -1.4351103124   -1.8146482226
H        2.9600342387   -2.7485729610   -1.8904434614
H        5.8643907542   -3.2111906654    0.0679417335
H        5.1805530498   -2.8166591070    1.6395096490
H        5.6576486612   -1.5041702764    0.5403888848
H       -2.0261517868    1.3709944334    2.5815038445
H       -1.9057138322    0.0320032597    1.4144278792
H       -0.9958041673    1.5411521444    1.1655749018
H       -1.3394268028    0.5609450140    4.4550021217
H        0.3258520727    0.0674389784    4.7288341374
H       -0.8596148677   -1.1250475902    4.1460696792
