23   
Generated by ForceBalance from scan.xyz: Frame 1 of 24
C        1.6856933176   -1.1322605902   -0.0323128388
C        2.7175959343   -1.5090857486    2.1222816044
C        0.5971049696   -0.5325555570    0.5868118155
C        1.6335507455   -0.9046670766    2.7491899126
C        2.7611685114   -1.6291677206    0.7232120504
C        0.5560700027   -0.4027909212    1.9909862871
C        3.8943334016   -2.2597356265    0.0094376866
C        6.9601210761   -3.7434426388    1.3320972251
C        6.0061704702   -3.3277710837    0.2267550116
N       -0.5602339007    0.1468838239    2.6167867580
O        3.9711124492   -2.3820413008   -1.2041411469
O        4.8637867874   -2.6986672042    0.8552790824
H        1.7211876691   -1.2295494483   -1.1130727063
H        3.5421096978   -1.8888011659    2.7161906783
H       -0.2336521299   -0.1621190626   -0.0099505014
H        1.6124516436   -0.8174333541    3.8335925605
H        7.2921203599   -2.8753015179    1.9095736439
H        6.4822335037   -4.4519794945    2.0154199450
H        7.8418672054   -4.2255415340    0.8972907778
H        5.6595202226   -4.1840269581   -0.3590139337
H        6.4653825977   -2.6152267389   -0.4645909260
H       -0.4346303583    0.4259632699    3.5816884649
H       -1.0913268019    0.8173572161    2.0754483709
23   
Generated by ForceBalance from scan.xyz: Frame 2 of 24
C        1.6897736903   -1.1330414068   -0.0252563164
C        2.7191045544   -1.5261522096    2.1289534045
C        0.6025010986   -0.5329108253    0.5977716586
C        1.6312338551   -0.9325670237    2.7588645118
C        2.7628182101   -1.6355499392    0.7285109855
C        0.5549830308   -0.4259689109    2.0024323274
C        3.8979779018   -2.2594380861    0.0109144397
C        6.9656913255   -3.7459543404    1.3253109163
C        6.0115882372   -3.3251445137    0.2221050750
N       -0.5576113789    0.1292459947    2.6402625208
O        3.9742954224   -2.3732568197   -1.2033855086
O        4.8678218891   -2.7015206536    0.8540361038
H        1.7299171581   -1.2159715761   -1.1070502222
H        3.5429736428   -1.9109601194    2.7204736306
H       -0.2203681468   -0.1445364953    0.0010849451
H        1.6021761746   -0.8622961176    3.8440826267
H        7.2961762476   -2.8807990795    1.9080935570
H        6.4886378948   -4.4593208411    2.0041575661
H        7.8482987539   -4.2240853712    0.8879070355
H        5.6662522907   -4.1783107670   -0.3688918532
H        6.4697551767   -2.6076106859   -0.4647260037
H       -0.3562503968    0.5965936735    3.5167665011
H       -1.1401887042    0.7047221774    2.0428887028
23   
Generated by ForceBalance from scan.xyz: Frame 3 of 24
C        1.6857250682   -1.1263318657   -0.0149162031
C        2.7107334188   -1.5337989760    2.1376794486
C        0.5995501484   -0.5257797048    0.6121943301
C        1.6196679139   -0.9494686725    2.7710730114
C        2.7568791984   -1.6340744614    0.7364099788
C        0.5452699287   -0.4379562199    2.0166292097
C        3.8943044133   -2.2530418867    0.0156250569
C        6.9605408457   -3.7466857212    1.3244433783
C        6.0079475101   -3.3193514490    0.2225200768
N       -0.5620970006    0.1279496962    2.6695767305
O        3.9710234787   -2.3587490830   -1.1991490181
O        4.8629341616   -2.6996926011    0.8567526657
H        1.7295365581   -1.1975973283   -1.0973666218
H        3.5332759980   -1.9242514528    2.7272418679
H       -0.2168980316   -0.1226427177    0.0162451465
H        1.5823000113   -0.8942675261    3.8565558366
H        7.2901442224   -2.8850568271    1.9128926050
H        6.4827128852   -4.4642697943    1.9982525805
H        7.8437584523   -4.2219880417    0.8852353849
H        5.6632829780   -4.1688297778   -0.3741121526
H        6.4666319793   -2.5973509282   -0.4592251400
H       -0.3122023701    0.7702434342    3.4146418437
H       -1.2062348992    0.5842519218    2.0314254008
23   
Generated by ForceBalance from scan.xyz: Frame 4 of 24
C        1.6842626347   -1.1158132452   -0.0043321816
C        2.7067480334   -1.5403455887    2.1477866128
C        0.5991616584   -0.5158365590    0.6276021810
C        1.6127612015   -0.9624264127    2.7833095152
C        2.7526099783   -1.6293820426    0.7458511791
C        0.5407480584   -0.4451711091    2.0316709495
C        3.8913243795   -2.2449062189    0.0209835614
C        6.9544757947   -3.7492739630    1.3232154230
C        6.0036398558   -3.3143377986    0.2228624014
N       -0.5592022596    0.1357252220    2.7028570743
O        3.9682289902   -2.3421456148   -1.1941728916
O        4.8580799310   -2.6974347140    0.8597127231
H        1.7309905407   -1.1775742655   -1.0872381423
H        3.5278952469   -1.9376378846    2.7347070949
H       -0.2129340408   -0.1007837811    0.0337988155
H        1.5673169413   -0.9189769275    3.8685987991
H        7.2842474126   -2.8916030164    1.9172827950
H        6.4752826897   -4.4706029265    1.9919995711
H        7.8376849291   -4.2226293989    0.8819452957
H        5.6584869199   -4.1596356820   -0.3793454961
H        6.4633611045   -2.5882718331   -0.4537917464
H       -0.2898184687    0.9280392477    3.2798675633
H       -1.2700905608    0.4529318919    2.0491692559
23   
Generated by ForceBalance from scan.xyz: Frame 5 of 24
C        1.6947965326   -1.1074935985    0.0042062798
C        2.7158710819   -1.5497015174    2.1545259836
C        0.6106356128   -0.5098223989    0.6418056621
C        1.6202798330   -0.9750745103    2.7928568102
C        2.7609922954   -1.6276342715    0.7524789887
C        0.5506304177   -0.4521337554    2.0454888722
C        3.9001815060   -2.2408244121    0.0226750598
C        6.9592623329   -3.7615300939    1.3140200096
C        6.0101235705   -3.3161324177    0.2165054404
N       -0.5424570355    0.1443297988    2.7362691248
O        3.9753850243   -2.3273191019   -1.1930358384
O        4.8651265631   -2.7015451598    0.8575480611
H        1.7427947333   -1.1618028488   -1.0790295592
H        3.5359407587   -1.9536444464    2.7383488910
H       -0.2000244450   -0.0874562731    0.0512570844
H        1.5691473857   -0.9386225231    3.8777194134
H        7.2905885988   -2.9091961408    1.9148199788
H        6.4781894960   -4.4870145997    1.9768942083
H        7.8416251598   -4.2333173032    0.8694515696
H        5.6630774563   -4.1558335029   -0.3923496664
H        6.4714063571   -2.5855754276   -0.4541703990
H       -0.2876948232    1.0543032400    3.1154694624
H       -1.3190719089    0.3045706376    2.0978865870
23   
Generated by ForceBalance from scan.xyz: Frame 6 of 24
C        1.8261392377   -1.0635820835   -0.1021795542
C        2.7672321072   -1.5828863817    2.0685132365
C        0.7180577288   -0.4891349543    0.5136826710
C        1.6672513034   -0.9855234806    2.6833985798
C        2.8603180563   -1.6173278138    0.6691975041
C        0.6369343021   -0.4192230207    1.9143005228
C        4.0143051407   -2.2337501147   -0.0372687031
C        6.9898252046   -3.8606444380    1.3179054546
C        6.0921651565   -3.3610567933    0.2006647492
N       -0.5471550107    0.1331032452    2.5044932660
O        4.1335495948   -2.2836229408   -1.2509814766
O        4.9356994493   -2.7428524465    0.8179826663
H        1.8983512179   -1.1148853545   -1.1841684988
H        3.5599277648   -2.0163496666    2.6687046098
H       -0.1036066176   -0.0932808873   -0.0764133123
H        1.6067944028   -0.9519852478    3.7694889107
H        7.3150262361   -3.0348447691    1.9578353854
H        6.4697791590   -4.5965832164    1.9384885737
H        7.8788872324   -4.3365316048    0.8914798428
H        5.7516766300   -4.1735969270   -0.4474145550
H        6.5927449869   -2.6194691615   -0.4283717237
H       -0.4500149942    1.1402860304    2.6323987972
H       -0.6671248765   -0.2492633118    3.4415314279
23   
Generated by ForceBalance from scan.xyz: Frame 7 of 24
C        1.8359343145   -1.0600476363   -0.0917112161
C        2.7715935734   -1.6032491286    2.0735611617
C        0.7266450968   -0.4933645761    0.5255598159
C        1.6717860804   -1.0120489752    2.6935293824
C        2.8702446707   -1.6230673681    0.6745214745
C        0.6427038819   -0.4360408796    1.9290371074
C        4.0245013020   -2.2303441357   -0.0355076444
C        6.9975677626   -3.8731501288    1.3070905002
C        6.1021955160   -3.3600095308    0.1940461314
N       -0.5360137446    0.0901439843    2.5277750537
O        4.1480362915   -2.2666525678   -1.2497037470
O        4.9447192977   -2.7496454758    0.8161874492
H        1.9097983007   -1.0994434034   -1.1741017319
H        3.5627092143   -2.0421520937    2.6719062153
H       -0.0925351658   -0.0949620933   -0.0670076038
H        1.6107687231   -0.9896939457    3.7799523751
H        7.3211553440   -3.0551704841    1.9578280351
H        6.4761676430   -4.6165853503    1.9175506591
H        7.8877116875   -4.3437594059    0.8770128845
H        5.7636747766   -4.1648193200   -0.4646809390
H        6.6045053848   -2.6110760068   -0.4249050905
H       -0.5754497609    1.1050900818    2.4514742286
H       -0.5511947109   -0.1240685163    3.5228907300
23   
Generated by ForceBalance from scan.xyz: Frame 8 of 24
C        1.8445393993   -1.0573397423   -0.0807444143
C        2.7774061330   -1.6200457145    2.0796698487
C        0.7362016418   -0.4937340951    0.5387495209
C        1.6780833290   -1.0354672641    2.7045699302
C        2.8784795485   -1.6291005416    0.6803145815
C        0.6484119766   -0.4525784493    1.9442554812
C        4.0321253667   -2.2288083900   -0.0333874862
C        7.0047153193   -3.8838730699    1.2964287638
C        6.1100453117   -3.3601880434    0.1876217480
N       -0.5190805410    0.0596528056    2.5528640179
O        4.1575804379   -2.2548632874   -1.2480608376
O        4.9525456245   -2.7558862136    0.8145927478
H        1.9204735153   -1.0835482281   -1.1634186855
H        3.5681849368   -2.0628312355    2.6756395538
H       -0.0771706016   -0.0850929210   -0.0556501531
H        1.6163128788   -1.0235184104    3.7911075586
H        7.3277008561   -3.0720610096    1.9551731118
H        6.4827870758   -4.6329724591    1.8995007597
H        7.8952692664   -4.3504412287    0.8627512098
H        5.7724197599   -4.1589191340   -0.4789735441
H        6.6131992443   -2.6057246039   -0.4239561385
H       -0.7027630319    1.0265326925    2.2970025780
H       -0.4624801289    0.0114329961    3.5667953868
23   
Generated by ForceBalance from scan.xyz: Frame 9 of 24
C        1.8534660808   -1.0545259971   -0.0714745245
C        2.7839519255   -1.6332003563    2.0849498921
C        0.7478226598   -0.4894670287    0.5505908088
C        1.6851969390   -1.0550139777    2.7141050171
C        2.8860758844   -1.6347393882    0.6848422464
C        0.6545968598   -0.4663058616    1.9570452077
C        4.0385120198   -2.2293074568   -0.0321052956
C        7.0118466885   -3.8927964493    1.2866009150
C        6.1167623406   -3.3618247455    0.1815068908
N       -0.4980524228    0.0440056238    2.5753964116
O        4.1647151038   -2.2481996896   -1.2471796045
O        4.9597735155   -2.7617602688    0.8126728831
H        1.9319902219   -1.0675655322   -1.1542250712
H        3.5743269355   -2.0799146354    2.6785673102
H       -0.0572159137   -0.0649388552   -0.0447982568
H        1.6211777035   -1.0540607605    3.8004837866
H        7.3348685003   -3.0853125807    1.9506515748
H        6.4900753301   -4.6458412024    1.8849027242
H        7.9023876919   -4.3564653638    0.8497436793
H        5.7792833496   -4.1563105136   -0.4902637259
H        6.6200674008   -2.6035979685   -0.4253306123
H       -0.8248651794    0.9170174010    2.1734218782
H       -0.3953075224    0.1503877959    3.5797091630
23   
Generated by ForceBalance from scan.xyz: Frame 10 of 24
C        1.8631759972   -1.0513174541   -0.0634843116
C        2.7925272917   -1.6427188058    2.0896942709
C        0.7613346071   -0.4824181741    0.5619656695
C        1.6938684249   -1.0711347623    2.7225247841
C        2.8942107901   -1.6387876875    0.6886266451
C        0.6617201272   -0.4779508619    1.9684958730
C        4.0450032541   -2.2302934935   -0.0314789564
C        7.0188926485   -3.9010521344    1.2774911594
C        6.1228445423   -3.3649667128    0.1755867548
N       -0.4743025357    0.0396927201    2.5964868615
O        4.1706383408   -2.2449504687   -1.2469132221
O        4.9672772666   -2.7666715659    0.8104512128
H        1.9442000499   -1.0521818647   -1.1461524707
H        3.5825206751   -2.0935453988    2.6807547004
H       -0.0345078703   -0.0394566225   -0.0329802104
H        1.6262805891   -1.0818568937    3.8084590555
H        7.3429898697   -3.0964960857    1.9445805969
H        6.4973314051   -4.6562667725    1.8732553586
H        7.9087668942   -4.3633866391    0.8378309472
H        5.7842168456   -4.1566049689   -0.4990027718
H        6.6262220892   -2.6048509326   -0.4288586565
H       -0.9391438736    0.7836433706    2.0886885541
H       -0.3439363263    0.2838098015    3.5715924504
23   
Generated by ForceBalance from scan.xyz: Frame 11 of 24
C        1.8729107056   -1.0472304243   -0.0575095223
C        2.8024863023   -1.6481061452    2.0931423300
C        0.7755357810   -0.4726914087    0.5710561472
C        1.7040177329   -1.0817137514    2.7291713690
C        2.9023645504   -1.6408503030    0.6912362550
C        0.6702822640   -0.4855756198    1.9774541728
C        4.0509842825   -2.2316298877   -0.0317526944
C        7.0244697242   -3.9090285358    1.2699812646
C        6.1276900044   -3.3693033924    0.1704044663
N       -0.4469632040    0.0485219590    2.6136244015
O        4.1764095239   -2.2436140640   -1.2473962707
O        4.9737166786   -2.7713038543    0.8080218565
H        1.9560962505   -1.0384264960   -1.1400023122
H        3.5920214608   -2.1031526602    2.6816283663
H       -0.0116201713   -0.0115866162   -0.0220129694
H        1.6325714453   -1.1025281613    3.8145044899
H        7.3494033785   -3.1065207671    1.9391374664
H        6.5030711816   -4.6657093063    1.8640372540
H        7.9138191587   -4.3704631432    0.8282946432
H        5.7875121948   -4.1590244773   -0.5056863567
H        6.6313681238   -2.6084456161   -0.4328792534
H       -1.0420761292    0.6392574949    2.0469026850
H       -0.3087224651    0.3994250221    3.5525500902
23   
Generated by ForceBalance from scan.xyz: Frame 12 of 24
C        1.9015298466   -1.0422863183   -0.0665911733
C        2.8372696410   -1.6290999701    2.0841471042
C        0.8096437628   -0.4563200218    0.5580495745
C        1.7478349167   -1.0477501608    2.7207288950
C        2.9319133443   -1.6368981499    0.6817255314
C        0.7125800537   -0.4512320696    1.9675721681
C        4.0704587634   -2.2434995130   -0.0402624056
C        7.0414983967   -3.9275481379    1.2604941423
C        6.1400376194   -3.3944215513    0.1614001756
N       -0.3701578404    0.1258952988    2.5945648324
O        4.1900361069   -2.2708810096   -1.2566948367
O        4.9952556536   -2.7816880692    0.8000608859
H        1.9778523732   -1.0478457513   -1.1496678888
H        3.6258726066   -2.0843742587    2.6737888736
H        0.0218051352    0.0022544422   -0.0358905675
H        1.6862904621   -1.0510407633    3.8069797888
H        7.3809795818   -3.1188750657    1.9148674936
H        6.5174631450   -4.6697465934    1.8703535530
H        7.9218417148   -4.4050975344    0.8178060640
H        5.7904635843   -4.1898911918   -0.5032042679
H        6.6448784995   -2.6442927382   -0.4543188225
H       -1.1124554107    0.5546724674    2.0637887918
H       -0.4159220569    0.1857384017    3.5999178029
23   
Generated by ForceBalance from scan.xyz: Frame 13 of 24
C        1.8715293314   -0.9995513385   -0.0492100266
C        2.8170262976   -1.5673020714    2.1030346167
C        0.7866729671   -0.4012661189    0.5788533639
C        1.7382704181   -0.9643566123    2.7392369664
C        2.9008381341   -1.5925380939    0.7003005914
C        0.7048683625   -0.3688116035    1.9865750306
C        4.0291002999   -2.2213153971   -0.0226384619
C        6.9932372320   -3.9136861559    1.2811550645
C        6.0888463171   -3.3893418702    0.1803645828
N       -0.3565150805    0.2667956602    2.6244085473
O        4.1370790255   -2.2663745806   -1.2391941754
O        4.9539224795   -2.7560509835    0.8180675833
H        1.9363815338   -1.0256783363   -1.1326725704
H        3.6056184733   -2.0228408533    2.6923886197
H       -0.0056769262    0.0493503644   -0.0153476782
H        1.6896712946   -0.9423056903    3.8258148228
H        7.3411768299   -3.0986628697    1.9230309167
H        6.4687089620   -4.6450777111    1.9034946332
H        7.8682104620   -4.4017631901    0.8393907546
H        5.7264512757   -4.1913489262   -0.4692545417
H        6.5953989736   -2.6530891204   -0.4503611607
H       -1.1585144476    0.4851363923    2.0471945526
H       -0.6026083152   -0.0753094120    3.5442930980
23   
Generated by ForceBalance from scan.xyz: Frame 14 of 24
C        1.8794243347   -0.9938699354   -0.0564183011
C        2.8191221507   -1.5668733111    2.0973151129
C        0.7975797708   -0.3886722672    0.5697952983
C        1.7366680226   -0.9663179963    2.7312351064
C        2.9048023842   -1.5915750712    0.6954046087
C        0.7062372905   -0.3706437307    1.9768205363
C        4.0340042096   -2.2219372383   -0.0258963613
C        6.9926945980   -3.9199705561    1.2823988580
C        6.0914543077   -3.3933452582    0.1801680730
N       -0.3502254944    0.2902150498    2.6089606059
O        4.1434762304   -2.2660286152   -1.2421859411
O        4.9561972051   -2.7583811191    0.8160693792
H        1.9503935375   -1.0130943802   -1.1396178545
H        3.6050082158   -2.0252110794    2.6880727791
H        0.0153716023    0.0790287272   -0.0243199589
H        1.6825459792   -0.9526591071    3.8179031768
H        7.3399316394   -3.1060992776    1.9261010958
H        6.4660912663   -4.6517251585    1.9025429295
H        7.8682243211   -4.4082448199    0.8419820180
H        5.7287526612   -4.1942036615   -0.4706672273
H        6.6004023739   -2.6574543438   -0.4490145692
H       -1.2145339980    0.3141739195    2.0800884171
H       -0.5119506958    0.0077123103    3.5688433230
23   
Generated by ForceBalance from scan.xyz: Frame 15 of 24
C        1.8652752159   -0.9784688368   -0.0588141235
C        2.7941850180   -1.5608620561    2.0976844573
C        0.7846804834   -0.3686110719    0.5648412808
C        1.7055809852   -0.9642448236    2.7271970731
C        2.8849882563   -1.5818267842    0.6969527848
C        0.6795165508   -0.3666697279    1.9707415256
C        4.0178893465   -2.2112988968   -0.0211390760
C        6.9709206208   -3.9110154366    1.2969675189
C        6.0741838543   -3.3832835661    0.1916548652
N       -0.3793913123    0.3117049701    2.5941147886
O        4.1315634719   -2.2540638227   -1.2368652462
O        4.9364767415   -2.7483334185    0.8236911632
H        1.9455879118   -0.9881846853   -1.1414754615
H        3.5765728685   -2.0220768964    2.6908235628
H        0.0134186746    0.1169863077   -0.0285787278
H        1.6429601052   -0.9608327009    3.8136521604
H        7.3173954303   -3.0975906195    1.9416249899
H        6.4411181495   -4.6418338667    1.9154757508
H        7.8470568442   -4.4007873295    0.8594676189
H        5.7135694036   -4.1834357351   -0.4611797346
H        6.5855944562   -2.6469084548   -0.4349168547
H       -1.2831487918    0.1470409366    2.1623113361
H       -0.4392705844    0.1266503656    3.5903681901
23   
Generated by ForceBalance from scan.xyz: Frame 16 of 24
C        1.8753180111   -0.9740519710   -0.0731241174
C        2.7925833686   -1.5658204076    2.0865094138
C        0.7947980884   -0.3604148769    0.5479502790
C        1.6988576962   -0.9711240082    2.7116691995
C        2.8886240357   -1.5829791041    0.6868754291
C        0.6783025500   -0.3716765043    1.9519304421
C        4.0260902194   -2.2116529691   -0.0278553164
C        6.9700944697   -3.9177118911    1.3009959264
C        6.0803113429   -3.3855772256    0.1922820669
N       -0.3897121529    0.3196821758    2.5660317938
O        4.1457151942   -2.2495428890   -1.2428070837
O        4.9389932428   -2.7518983516    0.8199220153
H        1.9649763909   -0.9754230898   -1.1550658805
H        3.5719697589   -2.0293348764    2.6817417319
H        0.0323533685    0.1402268090   -0.0435833617
H        1.6286871591   -0.9744095465    3.7977562866
H        7.3132810792   -3.1068063481    1.9505415694
H        6.4362873667   -4.6504865456    1.9136890693
H        7.8484676830   -4.4063806722    0.8668167709
H        5.7226510176   -4.1830338939   -0.4654022655
H        6.5955513554   -2.6471130452   -0.4286138381
H       -1.3002999475   -0.0239133128    2.2713862360
H       -0.3441845156    0.2512431323    3.5793511113
23   
Generated by ForceBalance from scan.xyz: Frame 17 of 24
C        1.8580087585   -0.9579871522   -0.0807772180
C        2.7583762348   -1.5618295557    2.0838146011
C        0.7739380316   -0.3452862198    0.5373294479
C        1.6582967766   -0.9703171350    2.7029220625
C        2.8634438572   -1.5715028637    0.6851037127
C        0.6444166056   -0.3679923370    1.9383170463
C        4.0083525609   -2.1966891241   -0.0244541846
C        6.9410443193   -3.9091296509    1.3197993156
C        6.0608048257   -3.3712155788    0.2063819193
N       -0.4414784220    0.3260278706    2.5410350334
O        4.1366520273   -2.2282808429   -1.2382956117
O        4.9138731153   -2.7404445642    0.8276983613
H        1.9585398787   -0.9508674408   -1.1617181752
H        3.5342613785   -2.0275072208    2.6818841705
H        0.0173377277    0.1652640991   -0.0524309683
H        1.5787808255   -0.9795380601    3.7883303371
H        7.2789737775   -3.1016639224    1.9763182944
H        6.4020576425   -4.6450155275    1.9241368754
H        7.8228911934   -4.3956787447    0.8903661369
H        5.7082562072   -4.1650203755   -0.4583736360
H        6.5809349522   -2.6293029794   -0.4062102461
H       -1.3212313533   -0.1726094569    2.4196340031
H       -0.2939976123    0.4091539201    3.5448405316
23   
Generated by ForceBalance from scan.xyz: Frame 18 of 24
C        1.8715825983   -0.9542532263   -0.0934129170
C        2.7559891280   -1.5763195068    2.0737774152
C        0.7819289165   -0.3462729602    0.5231506159
C        1.6513453329   -0.9873391451    2.6884123202
C        2.8697483979   -1.5735322363    0.6755812626
C        0.6446560952   -0.3782056753    1.9207676478
C        4.0213908419   -2.1940065883   -0.0312365034
C        6.9424751980   -3.9185652419    1.3215045568
C        6.0716949391   -3.3708050274    0.2055716329
N       -0.4656908415    0.3069756095    2.5150918770
O        4.1580475054   -2.2141198706   -1.2439703259
O        4.9193846790   -2.7449398064    0.8229411183
H        1.9804794407   -0.9392785968   -1.1734308995
H        3.5282855573   -2.0465556930    2.6728769323
H        0.0259011451    0.1679282936   -0.0634396385
H        1.5636597991   -1.0031280088    3.7730504095
H        7.2752397564   -3.1169705894    1.9877554022
H        6.3984224769   -4.6596064561    1.9148637893
H        7.8276606233   -4.4015516516    0.8949954620
H        5.7240371279   -4.1584996977   -0.4688863615
H        6.5966201342   -2.6234463288   -0.3961531049
H       -1.2712014145   -0.3135361607    2.5945973345
H       -0.2286589798    0.5680272174    3.4712830871
23   
Generated by ForceBalance from scan.xyz: Frame 19 of 24
C        1.8450525581   -0.8298965996    0.0167903258
C        2.7077927716   -1.5602978265    2.1576125672
C        0.7483369775   -0.2555231953    0.6543510729
C        1.6248566532   -0.9643489921    2.7979622093
C        2.8324331748   -1.4933800716    0.7598174513
C        0.6336353492   -0.2995903623    2.0551430927
C        3.9736140806   -2.1019681239    0.0292456866
C        6.8518790108   -3.9503458028    1.3087910687
C        5.9983602198   -3.3311153818    0.2170723848
N       -0.4680889024    0.2803499787    2.7463527778
O        4.1169005593   -2.0644343031   -1.1828366291
O        4.8549325608   -2.7145340421    0.8589772729
H        1.9431698375   -0.7923556296   -1.0637635701
H        3.4703049457   -2.0689322494    2.7375935226
H       -0.0246334116    0.2357482371    0.0665389171
H        1.5402190360   -0.9899421350    3.8810538371
H        7.1957176616   -3.1893351790    2.0157559036
H        6.2901149895   -4.7090653918    1.8619431524
H        7.7302696553   -4.4287201227    0.8633968375
H        5.6399293757   -4.0776797063   -0.4974023448
H        6.5412986424   -2.5653946435   -0.3442971562
H       -1.1138077331   -0.4339411899    3.0774129100
H       -0.9998332945    0.8828237824    2.1213630854
23   
Generated by ForceBalance from scan.xyz: Frame 20 of 24
C        1.8467484381   -0.8162481405    0.0088993707
C        2.6954590422   -1.5570174318    2.1506478570
C        0.7477582060   -0.2423244678    0.6410432080
C        1.6103225423   -0.9640090383    2.7874886588
C        2.8298381332   -1.4848874369    0.7534474673
C        0.6221278238   -0.2941828719    2.0415162293
C        3.9727363030   -2.0918431687    0.0279018363
C        6.8385992558   -3.9533687264    1.3175847734
C        5.9933171419   -3.3268334562    0.2235156281
N       -0.4694956665    0.3007754807    2.7140748646
O        4.1260878234   -2.0504455567   -1.1831929504
O        4.8477906399   -2.7106357486    0.8611039136
H        1.9503480177   -0.7736771261   -1.0709761997
H        3.4528550801   -2.0700137919    2.7335558121
H       -0.0197044506    0.2539888677    0.0502580670
H        1.5228786942   -0.9980630229    3.8705330733
H        7.1798439444   -3.1965149785    2.0302826060
H        6.2714774603   -4.7132144305    1.8637280029
H        7.7186372441   -4.4319114622    0.8755748301
H        5.6379369820   -4.0693240438   -0.4967553889
H        6.5420056175   -2.5601163464   -0.3309214720
H       -1.0126990532   -0.3726608423    3.2476506961
H       -1.0990148282    0.7655926245    2.0652663863
23   
Generated by ForceBalance from scan.xyz: Frame 21 of 24
C        1.8351818936   -0.8055116577    0.0059851824
C        2.6744184355   -1.5509996151    2.1485034519
C        0.7364609650   -0.2290031036    0.6338446863
C        1.5862879050   -0.9620848607    2.7828443421
C        2.8159535553   -1.4772445705    0.7520119795
C        0.6004787323   -0.2894547389    2.0341309769
C        3.9598343750   -2.0835903994    0.0306117782
C        6.8225742734   -3.9465759088    1.3266863373
C        5.9796363077   -3.3195417993    0.2309830934
N       -0.4811511709    0.3228583121    2.6894729444
O        4.1166107661   -2.0423602084   -1.1803412314
O        4.8334516948   -2.7030773177    0.8662100747
H        1.9435111831   -0.7586385984   -1.0732622232
H        3.4277528230   -2.0670617304    2.7339762961
H       -0.0240731666    0.2757909231    0.0413936008
H        1.4948971268   -1.0062975514    3.8656123464
H        7.1627201471   -3.1898845335    2.0401158153
H        6.2539844562   -4.7061306714    1.8717529298
H        7.7033130455   -4.4255755519    0.8865214649
H        5.6257990639   -4.0620128603   -0.4901218853
H        6.5301299808   -2.5533061189   -0.3223845822
H       -0.9093542142   -0.2620029094    3.4000689177
H       -1.1958983685    0.6503250043    2.0472213501
23   
Generated by ForceBalance from scan.xyz: Frame 22 of 24
C        1.8428490122   -0.8038063637   -0.0045930341
C        2.6709255816   -1.5612347608    2.1385473465
C        0.7440164007   -0.2251094457    0.6184482391
C        1.5769237000   -0.9791855330    2.7688117323
C        2.8196659013   -1.4808831493    0.7434427411
C        0.5951692984   -0.3015592394    2.0179681809
C        3.9662284101   -2.0836570916    0.0257078208
C        6.8239534833   -3.9501709733    1.3286442816
C        5.9857664317   -3.3192697917    0.2314403341
N       -0.4797115502    0.3220625992    2.6584149906
O        4.1305889130   -2.0378752905   -1.1843083762
O        4.8366141253   -2.7058500994    0.8636121755
H        1.9595483842   -0.7476856611   -1.0825429770
H        3.4195777951   -2.0819630319    2.7259781880
H       -0.0068070313    0.2936032485    0.0258492698
H        1.4767302422   -1.0384987974    3.8504395559
H        7.1604393943   -3.1960488794    2.0465426594
H        6.2531176431   -4.7119818502    1.8682175882
H        7.7069662560   -4.4271937381    0.8908515510
H        5.6358823094   -4.0592633307   -0.4941644906
H        6.5387685836   -2.5509099472   -0.3164977156
H       -0.7889290603   -0.1344253569    3.5089831065
H       -1.2634399119    0.5329299127    2.0510072570
23   
Generated by ForceBalance from scan.xyz: Frame 23 of 24
C        1.8391854404   -0.8008445600   -0.0113551065
C        2.6554884513   -1.5670917024    2.1318953217
C        0.7395088076   -0.2211534560    0.6072297344
C        1.5542378026   -0.9943996839    2.7586657793
C        2.8130709959   -1.4817492268    0.7385187862
C        0.5755762977   -0.3144828848    2.0053331963
C        3.9645991429   -2.0788758398    0.0253225641
C        6.8177929898   -3.9479086834    1.3353881133
C        5.9847025478   -3.3128303638    0.2366480338
N       -0.4964912660    0.3149541645    2.6336201324
O        4.1358613416   -2.0278185727   -1.1836740834
O        4.8316303151   -2.7037971413    0.8654169972
H        1.9654807336   -0.7339091994   -1.0876065976
H        3.4005783617   -2.0903155882    2.7216215266
H       -0.0008961242    0.3125949876    0.0152472510
H        1.4440441696   -1.0685014823    3.8386575887
H        7.1495408564   -3.1967480333    2.0585980100
H        6.2449287560   -4.7128375189    1.8683828449
H        7.7037149343   -4.4219300833    0.9001902815
H        5.6398320653   -4.0499452011   -0.4942953508
H        6.5399253275   -2.5414379435   -0.3047815093
H       -0.6884462804    0.0197954373    3.5827366958
H       -1.3342941140    0.4311549884    2.0774884912
23   
Generated by ForceBalance from scan.xyz: Frame 24 of 24
C        1.6853842253   -1.1249731244   -0.0336327438
C        2.7188684939   -1.4950114925    2.1210095793
C        0.5950663470   -0.5275427427    0.5837044459
C        1.6380116282   -0.8822568010    2.7461673118
C        2.7621579030   -1.6192014814    0.7227052364
C        0.5602811139   -0.3814771163    1.9873323305
C        3.8935333177   -2.2545336472    0.0105050736
C        6.9552542193   -3.7452338448    1.3350611454
C        6.0021306483   -3.3288590134    0.2292411962
N       -0.5569620681    0.1649611559    2.6076843103
O        3.9691545737   -2.3792519929   -1.2029274689
O        4.8617486781   -2.6955445202    0.8569566740
H        1.7170054774   -1.2329538927   -1.1135113464
H        3.5434540508   -1.8731515234    2.7158347909
H       -0.2431657005   -0.1720380198   -0.0112296492
H        1.6223278539   -0.7828013547    3.8296414498
H        7.2897715707   -2.8769808505    1.9109202142
H        6.4755888292   -4.4512269677    2.0197810090
H        7.8355728831   -4.2305318636    0.9009097981
H        5.6530439270   -4.1852243904   -0.3549400116
H        6.4631900163   -2.6188658627   -0.4635075631
H       -0.5347663156    0.2491419451    3.6147950216
H       -1.0593076299    0.8984177978    2.1268225145
