24   
Generated by ForceBalance from scan.xyz: Frame 1 of 24
C        1.6500779963   -1.6173411650   -0.5111943537
C        2.5760880883   -1.2778237471    1.6830334624
C        0.4696069524   -1.0023759424   -0.1066388283
C        1.3858790341   -0.6642984257    2.0925996431
C        2.7372615698   -1.7863979815    0.3791075940
C        0.3170288294   -0.5288478625    1.2026407079
C        4.1646768126   -2.5790892204   -1.4458637871
C        5.0889348419   -2.2934310619    0.8248743871
C       -0.9626945943    0.8227471590    2.7008155041
N        3.9121835790   -2.4462383820   -0.0176788034
O       -0.8941203726    0.0524817957    1.5083268082
H        1.7177734509   -1.9636182634   -1.5356241974
H        3.3786330052   -1.3530863481    2.4069105507
H       -0.3533425744   -0.8792113133   -0.8051862721
H        1.3170509925   -0.2964734410    3.1109142962
H        5.1193043205   -3.0878879105   -1.5935056941
H        4.2030626031   -1.6095768684   -1.9698338600
H        3.3953109603   -3.1947739438   -1.9220293804
H        5.9176786029   -2.8530515671    0.3866625165
H        4.9090437349   -2.7101952405    1.8209221663
H        5.4032254238   -1.2427037407    0.9431846639
H       -1.9458953160    1.2968698698    2.6988813410
H       -0.1834611626    1.5957606178    2.7225626044
H       -0.8723333670    0.1940773317    3.5966452136
24   
Generated by ForceBalance from scan.xyz: Frame 2 of 24
C        1.6595561861   -1.6251118805   -0.4893600715
C        2.5741969050   -1.3549648841    1.7220377814
C        0.4682926620   -1.0436617128   -0.0628428856
C        1.3729266226   -0.7806503349    2.1505865518
C        2.7456614927   -1.8100521828    0.3981315442
C        0.3032074300   -0.6305992861    1.2637853269
C        4.1825083153   -2.5326588283   -1.4489064172
C        5.1059980537   -2.2898877456    0.8312061327
C       -0.9219911885    0.8873680053    2.6416689145
N        3.9328628689   -2.4312703566   -0.0181477336
O       -0.9185856382   -0.0872060836    1.6038984182
H        1.7370231850   -1.9271386531   -1.5270174775
H        3.3772843182   -1.4453712979    2.4436782925
H       -0.3540613662   -0.9034401321   -0.7588048606
H        1.2895413716   -0.4542304235    3.1825182574
H        5.1470926007   -3.0179636629   -1.6096476140
H        4.1982123202   -1.5531737546   -1.9551000377
H        3.4238510846   -3.1553747529   -1.9335047794
H        5.9468711972   -2.8112446261    0.3698138118
H        4.9359132315   -2.7528914740    1.8085928026
H        5.3968880265   -1.2386986276    0.9947704994
H       -1.9061690461    1.3596106719    2.6130870593
H       -0.1447987819    1.6443443476    2.4768242517
H       -0.7781224405    0.4323837003    3.6305127321
24   
Generated by ForceBalance from scan.xyz: Frame 3 of 24
C        1.6572000890   -1.6187944226   -0.4603460480
C        2.5689578463   -1.4327606766    1.7623233332
C        0.4591808055   -1.0655467802   -0.0107583854
C        1.3621967652   -0.8907977178    2.2114374141
C        2.7449306675   -1.8289335092    0.4182635064
C        0.2925646380   -0.7088172454    1.3301256015
C        4.1843582970   -2.4699326685   -1.4561614656
C        5.1112921045   -2.3027831594    0.8308166532
C       -0.9055438382    0.9524325664    2.5516335227
N        3.9378216702   -2.4192417983   -0.0222365414
O       -0.9360155961   -0.2024924895    1.7148278347
H        1.7375539707   -1.8791581957   -1.5089788284
H        3.3716997228   -1.5500871975    2.4804057481
H       -0.3653508918   -0.9065907249   -0.7001812990
H        1.2667528351   -0.6143300885    3.2574605952
H        5.1536184803   -2.9389248602   -1.6357363259
H        4.1878813034   -1.4737717459   -1.9286809765
H        3.4307735452   -3.0840416351   -1.9593425556
H        5.9561733245   -2.7957305694    0.3462333249
H        4.9480414868   -2.8085018806    1.7879216408
H        5.3921395414   -1.2567505908    1.0379700173
H       -1.9265867003    1.3397742339    2.5770495500
H       -0.2315680933    1.7160553719    2.1435071955
H       -0.5961992303    0.7105432408    3.5764704093
24   
Generated by ForceBalance from scan.xyz: Frame 4 of 24
C        1.6620604633   -1.5991415350   -0.4303462577
C        2.5655870047   -1.5147489850    1.8045665488
C        0.4599481757   -1.0705628119    0.0413614480
C        1.3569383228   -0.9973301074    2.2726759621
C        2.7472025831   -1.8442341436    0.4416597974
C        0.2933684050   -0.7705108220    1.3945763121
C        4.1895739872   -2.4086622430   -1.4549535715
C        5.1148998004   -2.3273574990    0.8394816831
C       -0.9051150513    0.9996633917    2.4270029039
N        3.9430411228   -2.4086149822   -0.0202202024
O       -0.9359832793   -0.2952992660    1.8256243696
H        1.7453238607   -1.8169403898   -1.4883724643
H        3.3642696967   -1.6719584915    2.5195391069
H       -0.3655544820   -0.8891485271   -0.6415364327
H        1.2453792173   -0.7780546159    3.3312616728
H        5.1619885417   -2.8642947686   -1.6506891693
H        4.1859971423   -1.3968205041   -1.8925879459
H        3.4398598477   -3.0101287953   -1.9788829613
H        5.9629580563   -2.7918661961    0.3330251305
H        4.9536515303   -2.8791019242    1.7711620178
H        5.3895714507   -1.2910105628    1.0964472773
H       -1.9415145030    1.2607400879    2.6531866689
H       -0.4810490451    1.7412354392    1.7373350872
H       -0.3248113985    1.0059939732    3.3582587170
24   
Generated by ForceBalance from scan.xyz: Frame 5 of 24
C        1.6662187362   -1.5712323272   -0.3842288791
C        2.5786438809   -1.5836434911    1.8511960544
C        0.4643464515   -1.0657004320    0.1139400950
C        1.3717992216   -1.0848644183    2.3421238022
C        2.7540335279   -1.8530008919    0.4736341058
C        0.3050613222   -0.8224496292    1.4788016844
C        4.1866178880   -2.3433497253   -1.4510517590
C        5.1226746965   -2.3562961518    0.8417143338
C       -0.9102402205    1.0268680743    2.3064920022
N        3.9472192240   -2.3969979436   -0.0161170486
O       -0.9126180033   -0.3592198100    1.9586371362
H        1.7456438540   -1.7474840723   -1.4502427532
H        3.3795626739   -1.7736538594    2.5556311374
H       -0.3648274511   -0.8616319211   -0.5583440879
H        1.2544948256   -0.9064080213    3.4080848379
H        5.1590113178   -2.7889916591   -1.6683410058
H        4.1787645627   -1.3159073564   -1.8503810371
H        3.4355052608   -2.9264921376   -1.9934562948
H        5.9676229262   -2.7998945574    0.3119483810
H        4.9638909518   -2.9479817245    1.7489702183
H        5.4005737337   -1.3328349190    1.1425973168
H       -1.9144945984    1.2610041737    2.6677448521
H       -0.6796105538    1.6505133079    1.4323321385
H       -0.1808977710    1.2418900835    3.0983573017
24   
Generated by ForceBalance from scan.xyz: Frame 6 of 24
C        1.6690463776   -1.5284132400   -0.3312385601
C        2.6037595845   -1.6389487584    1.8934081385
C        0.4761765738   -1.0356927940    0.1992587471
C        1.4074748162   -1.1455299469    2.4156040398
C        2.7622405922   -1.8547029686    0.5046885511
C        0.3342803330   -0.8441709004    1.5749750057
C        4.1707044138   -2.2822383545   -1.4528394089
C        5.1287791553   -2.3963628571    0.8279203246
C       -0.9419175548    1.0406994223    2.1909977303
N        3.9445495895   -2.3904771018   -0.0187873181
O       -0.8650970620   -0.3837735540    2.1025151554
H        1.7362178094   -1.6645917603   -1.4039523813
H        3.4105975873   -1.8623368072    2.5810660034
H       -0.3583405824   -0.8042221963   -0.4577830215
H        1.2991825480   -0.9992598836    3.4873038308
H        5.1360048450   -2.7291682680   -1.6973814723
H        4.1704085933   -1.2396766578   -1.8108885312
H        3.4081654898   -2.8353546870   -2.0104780562
H        5.9632301432   -2.8285257954    0.2726861305
H        4.9718274268   -3.0210076425    1.7130925945
H        5.4214024421   -1.3885592044    1.1653358726
H       -1.9209570085    1.2772623909    2.6147504796
H       -0.8504119134    1.5050400317    1.1999469588
H       -0.1543186549    1.4400696799    2.8440024552
24   
Generated by ForceBalance from scan.xyz: Frame 7 of 24
C        1.6848662351   -1.4744312804   -0.2781556934
C        2.6385921472   -1.6857552525    1.9298756148
C        0.5072470002   -0.9781676875    0.2815265350
C        1.4599402075   -1.1814627745    2.4817972349
C        2.7792598718   -1.8548347389    0.5333650285
C        0.3843975437   -0.8290936052    1.6653554209
C        4.1580680322   -2.2415939202   -1.4536478220
C        5.1364373149   -2.4584355997    0.8110486060
C       -1.0046231190    1.0364232594    2.0839910922
N        3.9443338070   -2.3966228894   -0.0221008816
O       -0.7921582042   -0.3679646981    2.2399306851
H        1.7376683311   -1.5746826195   -1.3556345047
H        3.4474589670   -1.9489380520    2.6008677433
H       -0.3272393049   -0.7133075768   -0.3629662085
H        1.3653795055   -1.0636117439    3.5580277071
H        5.1110954464   -2.6995011978   -1.7246499049
H        4.1763476790   -1.1870405646   -1.7743203049
H        3.3783503506   -2.7582637106   -2.0224398800
H        5.9558123887   -2.8878644868    0.2317354085
H        4.9746496970   -3.1112114450    1.6748343833
H        5.4541897621   -1.4700107368    1.1815066750
H       -1.9536065362    1.2657612474    2.5745436006
H       -1.0665105438    1.3198593878    1.0252428077
H       -0.1973975892    1.6101559626    2.5588103640
24   
Generated by ForceBalance from scan.xyz: Frame 8 of 24
C        1.7075944190   -1.4016959229   -0.2404826038
C        2.6701883692   -1.7156468472    1.9487779019
C        0.5489128732   -0.8886647799    0.3445163360
C        1.5140230176   -1.1905431819    2.5269251055
C        2.7955491199   -1.8435892779    0.5467052208
C        0.4425564667   -0.7758993997    1.7337736307
C        4.1462395398   -2.2041321574   -1.4637183037
C        5.1381571349   -2.5167895456    0.7816518394
C       -1.1018133967    1.0098847153    2.0013431382
N        3.9394302412   -2.4037236404   -0.0367065902
O       -0.7059988804   -0.3148621354    2.3587161946
H        1.7478628255   -1.4667141758   -1.3212109270
H        3.4757495367   -2.0235995714    2.6045646532
H       -0.2765698240   -0.5817841789   -0.2920944590
H        1.4324807049   -1.1003497301    3.6066723875
H        5.0812146839   -2.6832518972   -1.7600114911
H        4.1967192578   -1.1398310228   -1.7471217713
H        3.3451226600   -2.6743244748   -2.0429030435
H        5.9395292367   -2.9542617061    0.1833489559
H        4.9679698905   -3.1855390061    1.6313715047
H        5.4863718889   -1.5462957131    1.1719156700
H       -1.9633323808    1.2542288295    2.6270012923
H       -1.3970748530    1.0806626418    0.9469758255
H       -0.2921023067    1.7256273318    2.1943512519
24   
Generated by ForceBalance from scan.xyz: Frame 9 of 24
C        1.7455883063   -1.3224409090   -0.2079563638
C        2.6904010996   -1.7344140302    1.9685789538
C        0.6045501408   -0.7818666376    0.3904105396
C        1.5567931824   -1.1824693802    2.5628657913
C        2.8143813387   -1.8290527910    0.5631761936
C        0.5024404485   -0.7005778007    1.7822085877
C        4.1500930649   -2.1857074949   -1.4567037609
C        5.1338923387   -2.5836414338    0.7780774234
C       -1.2010849751    0.9632990150    1.9216399855
N        3.9379731418   -2.4168271160   -0.0354023699
O       -0.6191468216   -0.2308277430    2.4407918225
H        1.7844527480   -1.3542964913   -1.2902156172
H        3.4830042412   -2.0900570429    2.6159584584
H       -0.2003848834   -0.4216756608   -0.2435675469
H        1.4783108939   -1.1188848478    3.6446566755
H        5.0671397188   -2.6893022424   -1.7682136023
H        4.2375887617   -1.1164150359   -1.7115904780
H        3.3318625268   -2.6113916662   -2.0464290980
H        5.9206518950   -3.0326920612    0.1689721058
H        4.9448504490   -3.2649698867    1.6136851605
H        5.5124278447   -1.6328275246    1.1883343706
H       -1.9215858295    1.3031374105    2.6689379345
H       -1.7320694162    0.7856993238    0.9776667579
H       -0.4391175094    1.7372378404    1.7655574143
24   
Generated by ForceBalance from scan.xyz: Frame 10 of 24
C        1.7344281169   -1.2412887109   -0.1392911447
C        2.7146263464   -1.7476180917    2.0002889753
C        0.6284705287   -0.6727156527    0.5012896684
C        1.6182472748   -1.1713777192    2.6364427360
C        2.7999019553   -1.8089554317    0.5895436495
C        0.5627479095   -0.6268662281    1.8967296662
C        4.0691359532   -2.1642734292   -1.4721482150
C        5.1037190419   -2.6281042242    0.7214291314
C       -1.2675782401    0.9049547001    1.9934949089
N        3.8864166491   -2.4248375169   -0.0518999074
O       -0.5093527913   -0.1308470567    2.6095016047
H        1.7464248558   -1.2409751153   -1.2226428788
H        3.5085308030   -2.1495214985    2.6184234390
H       -0.1713688596   -0.2616404973   -0.1066168304
H        1.5691929902   -1.1344722908    3.7211533596
H        4.9526921430   -2.7008313000   -1.8233610584
H        4.1986052552   -1.0933548357   -1.7022603890
H        3.2157688772   -2.5365530841   -2.0476951857
H        5.8589104543   -3.0908495078    0.0831211070
H        4.9252857381   -3.3126447920    1.5564824444
H        5.5187362220   -1.6906136900    1.1272472150
H       -1.9122697849    1.3159830234    2.7730832755
H       -1.8982465520    0.5213025287    1.1807641338
H       -0.6148865234    1.6949402888    1.6009161036
24   
Generated by ForceBalance from scan.xyz: Frame 11 of 24
C        1.7627858709   -1.1740760615   -0.1155130684
C        2.7284915406   -1.7391902283    2.0143845837
C        0.6779336184   -0.5723041264    0.5338941684
C        1.6541843516   -1.1356075448    2.6600154018
C        2.8087194729   -1.7870240614    0.6021664312
C        0.6149489080   -0.5454346721    1.9297146656
C        4.0598624755   -2.1634289156   -1.4662153735
C        5.0860984691   -2.6790389604    0.7184557970
C       -1.3267786311    0.8463676782    1.9741068267
N        3.8723980995   -2.4340743491   -0.0485559956
O       -0.4191910955   -0.0042817140    2.6617712163
H        1.7725063338   -1.1592098709   -1.1987722917
H        3.5091219837   -2.1758930872    2.6258379972
H       -0.1028663731   -0.1233289227   -0.0708653783
H        1.6090000601   -1.1102933787    3.7452399885
H        4.9233239837   -2.7260559505   -1.8266280491
H        4.2253795000   -1.0949458593   -1.6847322899
H        3.1922865949   -2.4994326247   -2.0428941322
H        5.8243024055   -3.1603714485    0.0739773465
H        4.8904841111   -3.3634198438    1.5497518633
H        5.5312119931   -1.7573001840    1.1285929227
H       -1.9831239657    1.2690101137    2.7370216727
H       -1.9353591162    0.2893577778    1.2493118438
H       -0.7998204544    1.6574365306    1.4548245793
24   
Generated by ForceBalance from scan.xyz: Frame 12 of 24
C        1.7943736843   -1.1138103261   -0.1142955115
C        2.7418508415   -1.7225881731    2.0115385851
C        0.7308997063   -0.4783833530    0.5394745092
C        1.6870693789   -1.0907396959    2.6613773129
C        2.8195839000   -1.7648319232    0.5987436350
C        0.6661250019   -0.4633826138    1.9353398912
C        4.0581728557   -2.1675009856   -1.4718558606
C        5.0651634861   -2.7349931256    0.7087644705
C       -1.3733647336    0.7812294345    1.9615484722
N        3.8607998679   -2.4434109311   -0.0565678095
O       -0.3309182016    0.1322831479    2.6753683611
H        1.8043222966   -1.0919319052   -1.1974575303
H        3.5078093125   -2.1885979708    2.6199113312
H       -0.0310427082    0.0036375733   -0.0634342144
H        1.6432066647   -1.0707871406    3.7467805921
H        4.9027582446   -2.7554613639   -1.8365557641
H        4.2591208416   -1.1033342567   -1.6815371244
H        3.1802601639   -2.4697451864   -2.0516501753
H        5.7865488175   -3.2370227952    0.0610173467
H        4.8459743139   -3.4179183013    1.5353728436
H        5.5417376993   -1.8319683552    1.1252050892
H       -2.0529483576    1.1808782932    2.7162323246
H       -1.9201205437    0.0785441440    1.3188097599
H       -0.9886877262    1.6068836326    1.3481919054
24   
Generated by ForceBalance from scan.xyz: Frame 13 of 24
C        1.8241465741   -1.0541236268   -0.1156145698
C        2.7447920390   -1.6971038184    2.0120220994
C        0.7807721726   -0.3851434980    0.5358534780
C        1.7061062834   -1.0359791740    2.6597273654
C        2.8260691970   -1.7391714108    0.5996964023
C        0.7079220631   -0.3766233408    1.9314726657
C        4.0615232128   -2.1730216881   -1.4667234364
C        5.0364757849   -2.7860160597    0.7160046279
C       -1.4190158173    0.7111106720    1.9715856846
N        3.8468414486   -2.4494928894   -0.0539419750
O       -0.2574675609    0.2766054112    2.6659911013
H        1.8395181711   -1.0294150244   -1.1986444373
H        3.4933916788   -2.1884564318    2.6220098620
H        0.0386485533    0.1276379687   -0.0668768971
H        1.6587674213   -1.0171526968    3.7450023563
H        4.8866750474   -2.7886712159   -1.8302206899
H        4.3012552055   -1.1155930652   -1.6693517392
H        3.1766856315   -2.4408503442   -2.0528084802
H        5.7436000660   -3.3092961388    0.0693623992
H        4.7895174199   -3.4650340147    1.5379892058
H        5.5415022685   -1.9019284598    1.1394242022
H       -2.1078363423    1.0792362187    2.7341302549
H       -1.8891041568   -0.1148392673    1.4221169004
H       -1.1925225367    1.5269918018    1.2722675580
24   
Generated by ForceBalance from scan.xyz: Frame 14 of 24
C        1.8605343933   -0.9735045215   -0.2171214448
C        2.7164729943   -1.6013553364    1.9434535081
C        0.8280874281   -0.2586634692    0.3987872686
C        1.6824745826   -0.8969459026    2.5549603632
C        2.8255418509   -1.6749707470    0.5350570508
C        0.7224503054   -0.2232147751    1.7922276546
C        4.0996939987   -2.1789685210   -1.4925519678
C        4.9889592252   -2.8051641443    0.7238098775
C       -1.4818767002    0.6949723028    1.8333756273
N        3.8363458049   -2.4287839761   -0.0827678020
O       -0.2295089333    0.4991566195    2.4818234715
H        1.9011708318   -0.9710397368   -1.2997753214
H        3.4367417781   -2.1023392252    2.5791500599
H        0.1157275120    0.2708615705   -0.2260547305
H        1.6123329756   -0.8544655045    3.6383150236
H        4.9139115177   -2.8262549540   -1.8242217013
H        4.3801654236   -1.1329891400   -1.7012637529
H        3.2236583877   -2.4255773381   -2.1007254999
H        5.6910328611   -3.3654551379    0.1032517991
H        4.6904650213   -3.4628563349    1.5460797401
H        5.5188108148   -1.9378152171    1.1514198933
H       -2.1644157566    1.0745340313    2.5965264387
H       -1.8704239811   -0.2477324239    1.4278712981
H       -1.4119592473    1.4338866118    1.0242909876
24   
Generated by ForceBalance from scan.xyz: Frame 15 of 24
C        1.8895635459   -0.9032432782   -0.2488296883
C        2.6925979039   -1.5598505343    1.9257750963
C        0.8721652581   -0.1585213258    0.3528660029
C        1.6679912833   -0.8259116269    2.5215539695
C        2.8210921021   -1.6350080937    0.5197152835
C        0.7438005600   -0.1223508025    1.7445813037
C        4.1156105845   -2.1688719456   -1.4879340042
C        4.9333694724   -2.8530723796    0.7423816142
C       -1.5246229674    0.6015512259    1.8761520999
N        3.8177271144   -2.4153751337   -0.0843813209
O       -0.2007451735    0.6414517380    2.4056646510
H        1.9502035259   -0.8996583898   -1.3306022048
H        3.3886691116   -2.0814797505    2.5716473566
H        0.1862265040    0.3992438478   -0.2779820334
H        1.5810433852   -0.7823808125    3.6036701653
H        4.9188406480   -2.8364632440   -1.8055276454
H        4.4282269191   -1.1303776462   -1.6867774849
H        3.2457481831   -2.3897342749   -2.1147958718
H        5.6260313144   -3.4330412856    0.1295093925
H        4.5871653369   -3.5096607811    1.5468059350
H        5.4889325447   -2.0158681949    1.1963974988
H       -2.1691926956    1.0650018072    2.6263766782
H       -1.8477700302   -0.4321181328    1.7005158882
H       -1.6106442607    1.1691471958    0.9406542982
24   
Generated by ForceBalance from scan.xyz: Frame 16 of 24
C        1.9300453853   -0.8291628163   -0.2873617645
C        2.6598185585   -1.5342869354    1.9006585937
C        0.9254730250   -0.0581999395    0.2991683701
C        1.6453447726   -0.7712665132    2.4802770946
C        2.8177761943   -1.6002393656    0.4976498620
C        0.7683273954   -0.0284524714    1.6880641364
C        4.1421702004   -2.1603632080   -1.4851889249
C        4.8769850439   -2.9000487131    0.7571125790
C       -1.5353217251    0.4913837766    1.9460093431
N        3.8020557809   -2.4053450811   -0.0909326379
O       -0.1824001733    0.7632780996    2.3138026830
H        2.0198501513   -0.8151849710   -1.3669864732
H        3.3243988398   -2.0837341080    2.5565006440
H        0.2738770751    0.5365843614   -0.3352920453
H        1.5348708293   -0.7343746847    3.5605923529
H        4.9301167431   -2.8526128264   -1.7877466526
H        4.4944758155   -1.1319914826   -1.6685947356
H        3.2811325716   -2.3477151922   -2.1347057278
H        5.5635180743   -3.4958533520    0.1526986113
H        4.4837607432   -3.5558982248    1.5403439959
H        5.4512963546   -2.0926108299    1.2404122826
H       -2.1604092623    1.1324799447    2.5718113803
H       -1.7870034235   -0.5610720165    2.1305310981
H       -1.7299469402    0.7253554342    0.8918296712
24   
Generated by ForceBalance from scan.xyz: Frame 17 of 24
C        1.9767770962   -0.7653642794   -0.3342912870
C        2.6229157813   -1.5171653024    1.8665927026
C        0.9804293688    0.0293535805    0.2329464248
C        1.6182500424   -0.7256303734    2.4259266955
C        2.8166399349   -1.5733399969    0.4675118613
C        0.7889102428    0.0521804982    1.6171072687
C        4.1741542933   -2.1571572262   -1.4856567968
C        4.8247500193   -2.9417564810    0.7694537698
C       -1.5109516796    0.3998549097    2.0393748352
N        3.7910384004   -2.4022713988   -0.1024480428
O       -0.1703939462    0.8681388296    2.2014942947
H        2.0988977543   -0.7431019882   -1.4105528219
H        3.2531226191   -2.0926205879    2.5339287578
H        0.3602045343    0.6541272469   -0.4048384394
H        1.4830653800   -0.6932704379    3.5037672046
H        4.9462473175   -2.8726345981   -1.7745913018
H        4.5647335609   -1.1396314755   -1.6504947443
H        3.3242402878   -2.3104650684   -2.1582188241
H        5.5071676243   -3.5547134134    0.1777393622
H        4.3880906164   -3.5913759495    1.5346107070
H        5.4122915434   -2.1589794314    1.2766245474
H       -2.1570326950    1.1197906612    2.5473429714
H       -1.6372869627   -0.5918925392    2.4937593339
H       -1.7943472255    0.3439644203    0.9803900404
24   
Generated by ForceBalance from scan.xyz: Frame 18 of 24
C        2.0153129665   -0.7204376230   -0.3915249863
C        2.5652415632   -1.5066671716    1.8243184402
C        1.0147108519    0.0886472072    0.1483374467
C        1.5622180563   -0.6951669553    2.3563123340
C        2.8078661167   -1.5537771699    0.4317946787
C        0.7788937742    0.1069310345    1.5243806731
C        4.2168790547   -2.1542564155   -1.4792505218
C        4.7756156438   -2.9669367177    0.7914249078
C       -1.4843218208    0.3356468956    2.1433510301
N        3.7843040410   -2.3980121484   -0.1104840136
O       -0.1921772370    0.9413788209    2.0625911638
H        2.1753667519   -0.6922234347   -1.4626280297
H        3.1604773104   -2.1006246070    2.5073571772
H        0.4221623238    0.7291199518   -0.5000386093
H        1.3959098593   -0.6660249451    3.4301536197
H        4.9842525503   -2.8830383925   -1.7465780737
H        4.6318616055   -1.1436982537   -1.6259649668
H        3.3864707251   -2.2880445586   -2.1797937620
H        5.4648951875   -3.5893877786    0.2179095058
H        4.2993108663   -3.6134315918    1.5353117766
H        5.3618295581   -2.2012341619    1.3253874565
H       -2.1547923131    1.0814258949    2.5773316437
H       -1.4642395748   -0.5558872091    2.7843860200
H       -1.8507383163    0.0490247935    1.1485123991
24   
Generated by ForceBalance from scan.xyz: Frame 19 of 24
C        2.0494627533   -0.6940763215   -0.4493890837
C        2.5041273666   -1.5144585197    1.7760437762
C        1.0342246401    0.1165024177    0.0613481299
C        1.4925251650   -0.6958768145    2.2787924703
C        2.7997103614   -1.5462883999    0.3930022051
C        0.7464103393    0.1224096787    1.4267459820
C        4.2702753530   -2.1453038678   -1.4717157504
C        4.7404475141   -2.9813071647    0.8101233453
C       -1.4553213760    0.3076244651    2.2607721043
N        3.7871738790   -2.3952684979   -0.1212378533
O       -0.2355472080    0.9704657650    1.9211826707
H        2.2498547330   -0.6554096015   -1.5133574876
H        3.0671724354   -2.1222646760    2.4741489656
H        0.4678773480    0.7672886368   -0.5996145863
H        1.2943343077   -0.6764612257    3.3475332041
H        5.0402980463   -2.8789308254   -1.7173254919
H        4.6990009638   -1.1374373383   -1.5959006116
H        3.4639532501   -2.2662642842   -2.2021567608
H        5.4449326943   -3.6040555702    0.2557119315
H        4.2323802366   -3.6309404130    1.5299496525
H        5.3132956980   -2.2258889152    1.3725000901
H       -2.1357082960    1.0760973313    2.6354547996
H       -1.2981593842   -0.4491655699    3.0403903430
H       -1.8973681817   -0.1766670168    1.3797273356
24   
Generated by ForceBalance from scan.xyz: Frame 20 of 24
C        2.0685318106   -0.6787402270   -0.4977740546
C        2.4349202438   -1.5409269902    1.7262610530
C        1.0343119543    0.1219941742   -0.0110540471
C        1.4077214233   -0.7286470686    2.2080524541
C        2.7847341390   -1.5479689390    0.3562104757
C        0.6943559545    0.1057681363    1.3426076910
C        4.3236911144   -2.1171610337   -1.4616907303
C        4.7114964626   -2.9855224352    0.8222498067
C       -1.4271903955    0.3109653977    2.3850176568
N        3.7897042711   -2.3912491816   -0.1352989488
O       -0.3017212152    0.9599406990    1.7915967275
H        2.3065513971   -0.6224217446   -1.5531843329
H        2.9681074053   -2.1644066495    2.4339856220
H        0.4898042732    0.7822866031   -0.6805603472
H        1.1775064673   -0.7339342507    3.2701948163
H        5.1010299866   -2.8480979624   -1.6920386049
H        4.7585461771   -1.1081126562   -1.5512100793
H        3.5450588224   -2.2226610784   -2.2238193251
H        5.4387817101   -3.5975645369    0.2855812426
H        4.1809652087   -3.6472633273    1.5143491230
H        5.2596940473   -2.2352006788    1.4153221354
H       -2.1431287704    1.0979597181    2.6330558868
H       -1.1543648797   -0.2252779992    3.3026569201
H       -1.8865427231   -0.3961030183    1.6819000552
24   
Generated by ForceBalance from scan.xyz: Frame 21 of 24
C        2.0698105509   -0.6680294993   -0.5323939675
C        2.3589573988   -1.5789081772    1.6799219281
C        1.0163717374    0.1178630587   -0.0666409636
C        1.3114471457   -0.7802003334    2.1445028526
C        2.7608666265   -1.5534985847    0.3261935930
C        0.6302520878    0.0773429069    1.2755373215
C        4.3718132695   -2.0685632702   -1.4442786426
C        4.6767394664   -2.9922045913    0.8285836903
C       -1.3916308600    0.3303039859    2.5131840298
N        3.7859079712   -2.3840542742   -0.1492757357
O       -0.3933393226    0.9163225281    1.6791447099
H        2.3398653806   -0.5916730789   -1.5788335580
H        2.8622278349   -2.2223868800    2.3916524092
H        0.4892286610    0.7859327702   -0.7421111148
H        1.0426860321   -0.8243430722    3.1959640682
H        5.1608058364   -2.7901106938   -1.6646762911
H        4.8057105219   -1.0558701913   -1.4864517900
H        3.6252908982   -2.1539260133   -2.2402241296
H        5.4275622846   -3.5881006614    0.3062294858
H        4.1262494605   -3.6720115545    1.4867784509
H        5.1974218050   -2.2510587853    1.4572423890
H       -2.2131386547    1.0487834424    2.5593833727
H       -1.0243281253    0.1508698074    3.5316757350
H       -1.7523075630   -0.6153220943    2.0894680636
24   
Generated by ForceBalance from scan.xyz: Frame 22 of 24
C        2.0558935239   -0.6724424227   -0.5690052529
C        2.2899403882   -1.6179715259    1.6339074637
C        0.9823344589    0.0939658858   -0.1220441338
C        1.2174788468   -0.8402135561    2.0821404915
C        2.7326508771   -1.5639949004    0.2958261094
C        0.5567210280    0.0285541157    1.2090145814
C        4.4181398266   -2.0095135729   -1.4228071747
C        4.6444591402   -2.9944038139    0.8305604945
C       -1.3424414553    0.3718291242    2.6160212982
N        3.7814130836   -2.3755694343   -0.1652147110
O       -0.4959807849    0.8435244525    1.5726046049
H        2.3531560684   -0.5776456550   -1.6065965700
H        2.7758009857   -2.2706879764    2.3493068296
H        0.4664400292    0.7657648875   -0.8024081352
H        0.9170732556   -0.9161711094    3.1225085378
H        5.2241106671   -2.7151534438   -1.6333950722
H        4.8415457533   -0.9914741977   -1.4120723536
H        3.7077131211   -2.0755248211   -2.2527362076
H        5.4161029620   -3.5763126246    0.3228016637
H        4.0773382019   -3.6892409490    1.4580752396
H        5.1390555769   -2.2611438935    1.4892829610
H       -2.2254174344    1.0142590141    2.6059539016
H       -0.8620368156    0.4493858451    3.6001705273
H       -1.6419063498   -0.6694081694    2.4422105354
24   
Generated by ForceBalance from scan.xyz: Frame 23 of 24
C        1.6672216536   -1.5690338085   -0.5197522306
C        2.6292515169   -1.1404573832    1.6432871578
C        0.5170017220   -0.8831902005   -0.1425601991
C        1.4734846886   -0.4467560048    2.0220758592
C        2.7557229149   -1.7305364857    0.3701940626
C        0.4067105300   -0.3087928774    1.1299474147
C        4.1245226713   -2.6996719738   -1.4135368774
C        5.0894515145   -2.3071781649    0.8240421081
C       -1.0398131778    0.6645691157    2.7635449130
N        3.8961542309   -2.4656338674    0.0057809306
O       -0.7656015835    0.3620796519    1.4020430630
H        1.7047103621   -1.9886442449   -1.5179824364
H        3.4324216829   -1.2137700146    2.3667029890
H       -0.3116514915   -0.7760418171   -0.8370134587
H        1.4321440954   -0.0130529603    3.0156835451
H        5.0563137152   -3.2548399995   -1.5381193728
H        4.1941888975   -1.7679693713   -1.9991835510
H        3.3253834583   -3.3131823353   -1.8409955856
H        5.8894920218   -2.9262825729    0.4133764351
H        4.9070003126   -2.6525318865    1.8466030679
H        5.4462480484   -1.2645502152    0.8715988852
H       -2.0558939473    1.0627832644    2.7865765852
H       -0.3511930681    1.4235072812    3.1582050402
H       -0.9842634890   -0.2341927848    3.3914169161
24   
Generated by ForceBalance from scan.xyz: Frame 24 of 24
C        1.6645432771   -1.5978001877   -0.5195360301
C        2.6029938495   -1.2090717907    1.6615026367
C        0.4978503302   -0.9475703294   -0.1320512043
C        1.4277375380   -0.5550932319    2.0528902804
C        2.7503607220   -1.7603929484    0.3739667612
C        0.3620046516   -0.4206407176    1.1590325701
C        4.1541391417   -2.6434870715   -1.4274353885
C        5.0923414929   -2.3001064869    0.8298899690
C       -0.9937507013    0.7465279700    2.7426775483
N        3.9098609153   -2.4579355539   -0.0037224268
O       -0.8326025885    0.2042747682    1.4398793032
H        1.7202604769   -1.9829841148   -1.5307421956
H        3.4040721734   -1.2817313224    2.3873229688
H       -0.3262509716   -0.8344411029   -0.8309627166
H        1.3714136791   -0.1533391589    3.0587969658
H        5.0986337938   -3.1745670449   -1.5610866494
H        4.2082429072   -1.6931076907   -1.9840669168
H        3.3716935844   -3.2605466020   -1.8800071438
H        5.9095845867   -2.8873111317    0.4064524980
H        4.9090563663   -2.6828024090    1.8389867398
H        5.4252323976   -1.2519087694    0.9148597029
H       -1.9921076132    1.1868372337    2.7652277117
H       -0.2498756067    1.5274233615    2.9493540286
H       -0.9242232994   -0.0314539422    3.5145331307
