17   
Generated by ForceBalance from scan.xyz: Frame 1 of 24
C        1.3908274423    0.0093859013    1.6771252064
C        1.5439326838   -0.4533156246    2.9737261168
C       -0.4242135937   -1.5272920780    1.4002431786
C        0.4011815035   -0.5471371880    0.8358769400
C        0.6590497572   -1.4500951604    3.4218244531
C       -0.9862120616   -0.3554645742   -1.2090040825
N       -0.3019814539   -1.9643451991    2.6696569908
N        0.2164200948   -0.0294183994   -0.4602288300
O        0.7866463019   -1.9117959280    4.7013496895
H        2.0283032670    0.8056073541    1.2996561667
H        2.2977126330   -0.0527190258    3.6437250065
H       -1.2245235527   -1.9830051443    0.8235904449
H       -1.0798152389   -1.4196813103   -1.4817890685
H       -0.9970407217    0.2338069513   -2.1300624378
H       -1.8666785404   -0.0765894965   -0.6212869192
H        1.0615843610   -0.0058388596   -1.0179942788
H        0.0869857501   -2.5807372893    4.8118399262
17   
Generated by ForceBalance from scan.xyz: Frame 2 of 24
C        1.3635422136    0.0262491795    1.6781011940
C        1.4957767142   -0.4032518291    2.9897703136
C       -0.3342821745   -1.6293578168    1.3629028090
C        0.4510217905   -0.6115454956    0.8111424397
C        0.6597689299   -1.4477966113    3.4206702334
C       -1.0039180118   -0.2790717729   -1.1686373920
N       -0.2391390869   -2.0369360172    2.6431679142
N        0.2869144829   -0.1250720688   -0.5107146759
O        0.7640591860   -1.8792881510    4.7108295197
H        1.9565163905    0.8574471100    1.3050804479
H        2.1912346005    0.0584766515    3.6831293992
H       -1.0835117149   -2.1396167444    0.7623332593
H       -1.2687806678   -1.3149737664   -1.4375464105
H       -1.0041302171    0.3169807272   -2.0863687321
H       -1.7874806617    0.1118092474   -0.5125464962
H        1.0772481748   -0.3190162542   -1.1156121420
H        0.1031616485   -2.5888153561    4.8073763764
17   
Generated by ForceBalance from scan.xyz: Frame 3 of 24
C        1.2994296260    0.0775402741    1.6436317208
C        1.4214324417   -0.3227600227    2.9678749432
C       -0.2281412912   -1.7280046595    1.2939641960
C        0.4696495088   -0.6394150838    0.7624561025
C        0.6712649775   -1.4358756347    3.3798929915
C       -1.0073126293   -0.1600686764   -1.1546322305
N       -0.1375267628   -2.1211470330    2.5769787038
N        0.3465527255   -0.1983152933   -0.5968211509
O        0.7654824393   -1.8450702062    4.6757417931
H        1.8363681920    0.9446717306    1.2689367221
H        2.0536369968    0.2001076105    3.6781164102
H       -0.8978170179   -2.3148481833    0.6681145645
H       -1.4982204748   -1.1406829184   -1.2608679106
H       -0.9656916306    0.3051547961   -2.1446701625
H       -1.6363434824    0.4655666807   -0.5147420357
H        0.9817519250   -0.7062375392   -1.2064824482
H        0.1744356520   -2.6158903586    4.7555264074
17   
Generated by ForceBalance from scan.xyz: Frame 4 of 24
C        1.2173327622    0.0915863250    1.6453925467
C        1.3227784498   -0.2810122226    2.9800781299
C       -0.1294360010   -1.8473601826    1.2688711730
C        0.4716551849   -0.6959942124    0.7529685410
C        0.6659925753   -1.4560760300    3.3783203356
C       -0.9833950143   -0.0518673895   -1.1046267821
N       -0.0390916385   -2.2279489431    2.5546359460
N        0.3853595822   -0.3107709463   -0.6322068676
O        0.7514281649   -1.8434986616    4.6807059444
H        1.7053852003    0.9872089570    1.2711621178
H        1.8894085235    0.2964031557    3.7032340029
H       -0.7082270172   -2.5039449381    0.6198846742
H       -1.6748556880   -0.9016355697   -0.9899141627
H       -0.9458784870    0.2234607101   -2.1633640756
H       -1.3971392274    0.7955562403   -0.5498077644
H        0.8088472033   -1.0333760942   -1.2106618776
H        0.2393359883   -2.6700461846    4.7478787308
17   
Generated by ForceBalance from scan.xyz: Frame 5 of 24
C        1.1355150394    0.0879568534    1.6360902395
C        1.2281087057   -0.2492296562    2.9804273180
C       -0.0459113277   -1.9580417803    1.2648500469
C        0.4745601179   -0.7715008011    0.7423230979
C        0.6604406090   -1.4686927898    3.3848934019
C       -0.9320028840    0.0481041525   -1.0660187743
N        0.0467030136   -2.3112241199    2.5587106353
N        0.3976216769   -0.4319706724   -0.6517699645
O        0.7430511660   -1.8238977656    4.6970486605
H        1.5728256421    1.0072745656    1.2562094861
H        1.7301480327    0.3827735206    3.7056451609
H       -0.5535920097   -2.6682564234    0.6116404617
H       -1.7470798764   -0.6639652242   -0.8595489481
H       -0.9153725442    0.2641624966   -2.1389067794
H       -1.1572893553    0.9790681562   -0.5371327052
H        0.6347264275   -1.2529539363   -1.2051481549
H        0.3023188677   -2.6902756741    4.7676190914
17   
Generated by ForceBalance from scan.xyz: Frame 6 of 24
C        1.0361795363    0.0847566449    1.6016206181
C        1.1383671658   -0.2171260698    2.9522738897
C        0.0280054015   -2.0572206575    1.2597798592
C        0.4551053806   -0.8429955772    0.7175860681
C        0.6724073648   -1.4734152341    3.3766512373
C       -0.8698287035    0.1498576664   -1.0641967756
N        0.1420728324   -2.3782481441    2.5613239495
N        0.3717944367   -0.5449541477   -0.6791200597
O        0.7721703423   -1.7941272836    4.6974656414
H        1.4088178992    1.0279647990    1.2108871483
H        1.5803851049    0.4677983260    3.6684567656
H       -0.4161470259   -2.8182245766    0.6172531246
H       -1.7836983480   -0.4071164035   -0.8032902838
H       -0.8584142180    0.3305594779   -2.1434410219
H       -0.9109688867    1.1200767290   -0.5606227611
H        0.4363758539   -1.4131896526   -1.2064733305
H        0.4072412204   -2.6937707718    4.7819411611
17   
Generated by ForceBalance from scan.xyz: Frame 7 of 24
C        0.9160363915    0.0798954504    1.5583094386
C        1.0538638273   -0.1921653146    2.9113192307
C        0.0833946598   -2.1423983950    1.2596236938
C        0.4052307923   -0.9068709135    0.6917929545
C        0.7000195296   -1.4761834225    3.3608459956
C       -0.8085531290    0.2339228199   -1.0929833270
N        0.2386248750   -2.4320949043    2.5644009285
N        0.2984425986   -0.6554872424   -0.7043209713
O        0.8397708889   -1.7658629769    4.6864951249
H        1.2106063458    1.0462931566    1.1575659772
H        1.4433881277    0.5396386282    3.6114587194
H       -0.3063269707   -2.9470044140    0.6351288877
H       -1.7978673426   -0.1405407115   -0.7863905612
H       -0.7969829597    0.3633535608   -2.1792478841
H       -0.6639762363    1.2180889668   -0.6390766064
H        0.2069023226   -1.5394427810   -1.1991523149
H        0.5516237993   -2.6910425151    4.7887628135
17   
Generated by ForceBalance from scan.xyz: Frame 8 of 24
C        0.7885029035    0.0697439305    1.5736623504
C        0.9629796620   -0.1908016519    2.9251579289
C        0.1326195563   -2.2123980080    1.2872728692
C        0.3519068802   -0.9566052964    0.7108021248
C        0.7170104241   -1.4961999235    3.3818816386
C       -0.7152001625    0.3080720748   -1.1031331959
N        0.3215665010   -2.4846870970    2.5903006713
N        0.2215895402   -0.7426417947   -0.6822654454
O        0.8921973804   -1.7717901880    4.7076792496
H        0.9995612447    1.0603135583    1.1804885279
H        1.2962924583    0.5734205153    3.6196645190
H       -0.2010085661   -3.0467215753    0.6691834544
H       -1.7363141354    0.1609109568   -0.7184358576
H       -0.7469953445    0.3341955589   -2.1958993275
H       -0.3604358535    1.2845866715   -0.7638265757
H       -0.0078993955   -1.6177562938   -1.1448954478
H        0.6763567291   -2.7158896401    4.8136462718
17   
Generated by ForceBalance from scan.xyz: Frame 9 of 24
C        1.0580523215   -1.3130638132    1.1551140409
C        1.5347679996   -1.5437652204    2.4393058564
C       -1.0214243617   -0.6396135464    2.1268855395
C       -0.2581354299   -0.8425857402    0.9689712686
C        0.6697794929   -1.3095700437    3.5182895148
C       -0.0018480554    0.0017301971   -1.3322412565
N       -0.5753825766   -0.8729153029    3.3712408047
N       -0.8175920596   -0.6609769087   -0.3114682693
O        1.1211305374   -1.5352253620    4.7884104504
H        1.7024411505   -1.5013303845    0.3016516232
H        2.5427398830   -1.9030833938    2.6191687424
H       -2.0471404918   -0.2774097972    2.0471690462
H        0.4341588881    0.9530303247   -0.9902824858
H       -0.6268507126    0.1934851085   -2.2081876535
H        0.8123622932   -0.6531508995   -1.6552451716
H       -1.7337692545   -0.2301089089   -0.2414574589
H        0.3770722734   -1.3150248161    5.3772389225
17   
Generated by ForceBalance from scan.xyz: Frame 10 of 24
C        1.0699429340   -1.1940613781    1.1606437236
C        1.5472695840   -1.4715005976    2.4373590037
C       -1.0488299041   -0.6824620823    2.1486329944
C       -0.2682802081   -0.7868301168    0.9864686225
C        0.6675762804   -1.3343101533    3.5185754609
C        0.0211294608   -0.0919694862   -1.3645499783
N       -0.5970289587   -0.9490828972    3.3820630352
N       -0.8355061192   -0.5562906801   -0.2773905087
O        1.1194795263   -1.6020177178    4.7812738795
H        1.7345244588   -1.2954181045    0.3085556050
H        2.5719819394   -1.7856420204    2.6069355937
H       -2.0916831562   -0.3711520052    2.0776659189
H        0.6469271324    0.7710756391   -1.0878713026
H       -0.6099206153    0.1887082330   -2.2112604944
H        0.6788000505   -0.8979819253   -1.7052208379
H       -1.6935352868   -0.0209541656   -0.2092716226
H        0.3613422596   -1.4457657729    5.3723887083
17   
Generated by ForceBalance from scan.xyz: Frame 11 of 24
C        1.0786732379   -1.0838254481    1.1659189515
C        1.5560467307   -1.4096857018    2.4326255313
C       -1.0682929019   -0.7122265899    2.1581454960
C       -0.2745154001   -0.7279675683    0.9987149054
C        0.6653338611   -1.3574698493    3.5105133647
C        0.0166237727   -0.1680479935   -1.3914102302
N       -0.6130970902   -1.0134933373    3.3810090364
N       -0.8442136103   -0.4339447460   -0.2485990518
O        1.1161093197   -1.6696626360    4.7636759290
H        1.7563379179   -1.1097815164    0.3189727611
H        2.5914810958   -1.6901741133    2.5960566882
H       -2.1229562363   -0.4435475781    2.0907923555
H        0.7582421126    0.6264691231   -1.2087770179
H       -0.6071790868    0.1268607399   -2.2385484748
H        0.5533734172   -1.0774748795   -1.6815978898
H       -1.6308253728    0.2001405835   -0.1802468674
H        0.3475178438   -1.5702025911    5.3535044291
17   
Generated by ForceBalance from scan.xyz: Frame 12 of 24
C        1.0956563112   -0.9837952203    1.1768598924
C        1.5673404209   -1.3552561379    2.4335404201
C       -1.0779213991   -0.7406522426    2.1513130854
C       -0.2679387884   -0.6739347495    1.0047018976
C        0.6611831978   -1.3803535266    3.4991381335
C       -0.0019887689   -0.2419631881   -1.4185134220
N       -0.6272632855   -1.0746928320    3.3671257285
N       -0.8312890812   -0.3130440155   -0.2283279214
O        1.1048163280   -1.7347853643    4.7432187558
H        1.7856602505   -0.9411197887    0.3405533348
H        2.6095578986   -1.6077042697    2.5997640494
H       -2.1410049344   -0.5113652620    2.0773403110
H        0.8198168943    0.4900579131   -1.3488778034
H       -0.6314134461    0.0298176317   -2.2695887593
H        0.4333311282   -1.2246632978   -1.6290802053
H       -1.5293490578    0.4165230062   -0.1610021975
H        0.3249487835   -1.6888432067    5.3248630045
17   
Generated by ForceBalance from scan.xyz: Frame 13 of 24
C        1.1170050576   -0.8968706589    1.2313957310
C        1.5780536728   -1.3118244330    2.4776073384
C       -1.0846695753   -0.7850547121    2.1649859713
C       -0.2543205506   -0.6346672231    1.0429358672
C        0.6504090112   -1.4166796226    3.5209816393
C       -0.0390209140   -0.3248948286   -1.4062553913
N       -0.6458670427   -1.1529815423    3.3765195463
N       -0.8076988151   -0.2087082131   -0.1793713070
O        1.0818484057   -1.8121332878    4.7556563521
H        1.8194542505   -0.7856518672    0.4112684902
H        2.6250573500   -1.5343130291    2.6563076384
H       -2.1536986524   -0.5958290763    2.0736540164
H        0.8498451755    0.3268440097   -1.4516064159
H       -0.6846062017   -0.0753109202   -2.2528465886
H        0.2921000048   -1.3607406341   -1.5330511377
H       -1.3704590121    0.6295763076   -0.1105320364
H        0.2894353551   -1.8216407199    5.3221544755
17   
Generated by ForceBalance from scan.xyz: Frame 14 of 24
C        1.1401027711   -0.7704080559    1.2426780704
C        1.5928832655   -1.2236554960    2.4768782860
C       -1.0872096038   -0.8208998656    2.1151143358
C       -0.2377281370   -0.5684060552    1.0308262336
C        0.6420980430   -1.4290896540    3.4869057997
C       -0.1073983984   -0.3968574500   -1.4327458385
N       -0.6623048467   -1.2282439739    3.3214087569
N       -0.7957886495   -0.0894497729   -0.1851925451
O        1.0635012253   -1.8633705492    4.7093555130
H        1.8530085068   -0.5829481408    0.4448374153
H        2.6444976831   -1.4027998761    2.6761534217
H       -2.1606163875   -0.6833030610    1.9962110897
H        0.8652831260    0.1065164349   -1.5634743807
H       -0.7490523190   -0.1089313606   -2.2710099382
H        0.0587248990   -1.4766954965   -1.4930685292
H       -1.0995922715    0.8761683974   -0.1253306776
H        0.2593386038   -1.9447950988    5.2536248686
17   
Generated by ForceBalance from scan.xyz: Frame 15 of 24
C        1.1729307320   -0.6110816243    1.2604670008
C        1.6176986135   -1.1020035035    2.4817345116
C       -1.0723794448   -0.8512204271    2.0478276864
C       -0.2076063820   -0.4764118194    1.0169491066
C        0.6473195065   -1.4338834420    3.4409465391
C       -0.1886323226   -0.4873590680   -1.4434951485
N       -0.6616673895   -1.3124866345    3.2415902806
N       -0.7687270616    0.0300677101   -0.2020668778
O        1.0586707071   -1.9119286509    4.6480933744
H        1.8949049686   -0.3338788623    0.4966761446
H        2.6714771163   -1.2242026756    2.7104544473
H       -2.1465572606   -0.7694646444    1.8944307308
H        0.8737507411   -0.2389535945   -1.6013743709
H       -0.7569820416   -0.0898455655   -2.2901383374
H       -0.2861277131   -1.5769543658   -1.4543347890
H       -0.7750564154    1.0467242030   -0.2013027726
H        0.2456198541   -2.0807715476    5.1584828658
17   
Generated by ForceBalance from scan.xyz: Frame 16 of 24
C        1.2091410652   -0.4530756852    1.3073280266
C        1.6398003629   -0.9877532949    2.5148055658
C       -1.0450016366   -0.8700072107    1.9895271874
C       -0.1678766512   -0.3765608133    1.0233316374
C        0.6564182235   -1.4453352133    3.4078577734
C       -0.2743145616   -0.5652371846   -1.4095412048
N       -0.6493963675   -1.3937167963    3.1630863964
N       -0.7075104057    0.1509972914   -0.2013219553
O        1.0529879124   -1.9749818473    4.5976022684
H        1.9372724826   -0.0878848536    0.5863133784
H        2.6896995168   -1.0590312566    2.7798540899
H       -2.1159141181   -0.8337446001    1.8007437159
H        0.8177186334   -0.5961088680   -1.5560626642
H       -0.7264412208   -0.0888502047   -2.2850567195
H       -0.6361078705   -1.5966187312   -1.3608747646
H       -0.4634931959    1.1356878315   -0.2857813562
H        0.2344780482   -2.2278686510    5.0626894249
17   
Generated by ForceBalance from scan.xyz: Frame 17 of 24
C        1.2451795959   -0.3288379275    1.3592474131
C        1.6516458049   -0.8945981506    2.5616307822
C       -1.0110036336   -0.8932206658    1.9193243757
C       -0.1202535629   -0.3075366852    1.0184355912
C        0.6583415120   -1.4536551881    3.3820352429
C       -0.3808814959   -0.6216733084   -1.3780119184
N       -0.6365109393   -1.4613404151    3.0782299540
N       -0.6248707122    0.2394432367   -0.2091313007
O        1.0307985471   -2.0218642254    4.5622629235
H        1.9815953268    0.1054083965    0.6856770495
H        2.6911945106   -0.9210028870    2.8717310971
H       -2.0746767303   -0.8964674366    1.6895164997
H        0.6821247955   -0.8648001726   -1.5396612147
H       -0.7683945480   -0.1260030604   -2.2735900254
H       -0.9247571120   -1.5620186466   -1.2489152574
H       -0.1969900859    1.1485180084   -0.3729558003
H        0.2080164148   -2.3426147038    4.9748482495
17   
Generated by ForceBalance from scan.xyz: Frame 18 of 24
C        1.2936552624   -0.2498222921    1.4324413289
C        1.6644026695   -0.8333973065    2.6390556745
C       -0.9552366859   -0.9487038953    1.8529967167
C       -0.0501805373   -0.2870127035    1.0182506280
C        0.6640734091   -1.4769887452    3.3832500004
C       -0.4808022263   -0.6498335841   -1.3481264303
N       -0.6104639636   -1.5423664310    3.0067410994
N       -0.5134317882    0.2821525567   -0.2085980385
O        1.0030588718   -2.0689733030    4.5630376757
H        2.0411138643    0.2429893311    0.8132998255
H        2.6860981127   -0.8141042169    3.0039773243
H       -2.0061858063   -0.9941636975    1.5731971244
H        0.5197991422   -1.0663215006   -1.5483629854
H       -0.8349706344   -0.1310630562   -2.2443087887
H       -1.1598680718   -1.4840782089   -1.1510694935
H        0.0472603269    1.1008293444   -0.4327920980
H        0.1779095879   -2.4473646242    4.9176374159
17   
Generated by ForceBalance from scan.xyz: Frame 19 of 24
C        1.3361785344   -0.1816488901    1.4772140794
C        1.6730029864   -0.7644843797    2.6946082208
C       -0.8893686436   -1.0090405828    1.7641243395
C        0.0222613016   -0.2854048574    0.9861206569
C        0.6736050722   -1.4758530097    3.3732183656
C       -0.5814981799   -0.6460299498   -1.3531297142
N       -0.5726753600   -1.6029929698    2.9246680909
N       -0.3978776133    0.3005271591   -0.2410800287
O        0.9803155640   -2.0709037248    4.5617616341
H        2.0889669541    0.3612006518    0.9084127131
H        2.6718340462   -0.6953586285    3.1128393098
H       -1.9223889032   -1.1069572247    1.4350699839
H        0.3277565596   -1.2195208986   -1.5941271384
H       -0.8993340149   -0.0929517181   -2.2420684279
H       -1.3730715325   -1.3567543808   -1.1023694665
H        0.2633706468    1.0213167642   -0.5178939515
H        0.1591447227   -2.4995663318    4.8640652033
17   
Generated by ForceBalance from scan.xyz: Frame 20 of 24
C        1.3591819009   -0.1191948120    1.5201120827
C        1.6661116255   -0.6861735022    2.7520069864
C       -0.8251523479   -1.0779795662    1.6877404494
C        0.0813513327   -0.2974558158    0.9575418391
C        0.6765473069   -1.4556172971    3.3792866076
C       -0.6892963133   -0.6269159072   -1.3504182800
N       -0.5333476715   -1.6527930553    2.8648012015
N       -0.2925911234    0.2935887702   -0.2752203592
O        0.9560466919   -2.0363253364    4.5830086675
H        2.1085317179    0.4689856563    0.9932378123
H        2.6375407095   -0.5611222090    3.2189345463
H       -1.8328321308   -1.2434547223    1.3118827272
H        0.0807474254   -1.3780115691   -1.5856043459
H       -0.9051667731   -0.0441734364   -2.2504169042
H       -1.6058049635   -1.1533756363   -1.0738400739
H        0.4484670880    0.9064180809   -0.6021354426
H        0.1469070707   -2.5132923630    4.8417695317
17   
Generated by ForceBalance from scan.xyz: Frame 21 of 24
C        1.3838365114   -0.0702573010    1.5548387836
C        1.6660465684   -0.6291994118    2.7942275427
C       -0.7360257010   -1.1774843424    1.6006220452
C        0.1480373134   -0.3235467290    0.9260793243
C        0.6965429319   -1.4631116287    3.3706661766
C       -0.7821949073   -0.5905052699   -1.3403109834
N       -0.4667348919   -1.7359447329    2.7928679600
N       -0.1808236598    0.2654693469   -0.3128351917
O        0.9536620298   -2.0315130536    4.5865130099
H        2.1184170300    0.5713341609    1.0711847801
H        2.6056220335   -0.4490898817    3.3062070257
H       -1.7043197871   -1.4239066405    1.1715605975
H       -0.2256667696   -1.5262389681   -1.5024066406
H       -0.8218572156   -0.0327285444   -2.2796109590
H       -1.8112870861   -0.8450435874   -1.0727374225
H        0.6167081252    0.7685675465   -0.6870147243
H        0.1662183799   -2.5630055099    4.8020162949
17   
Generated by ForceBalance from scan.xyz: Frame 22 of 24
C        1.4008569075   -0.0490975024    1.6163384487
C        1.6529326152   -0.5995457245    2.8637525050
C       -0.6484745729   -1.2843497643    1.5465661807
C        0.2161854947   -0.3749031928    0.9217106982
C        0.7024589773   -1.4881447754    3.3920886110
C       -0.8562270183   -0.5499845201   -1.2930378981
N       -0.4101706438   -1.8247733736    2.7561551890
N       -0.0690595829    0.2105429386   -0.3243932905
O        0.9315349169   -2.0425491405    4.6207744583
H        2.1165499983    0.6420282869    1.1745170565
H        2.5536273081   -0.3679664391    3.4227595723
H       -1.5729599102   -1.5952024948    1.0672960912
H       -0.4946321402   -1.5810006648   -1.4289945398
H       -0.8218569140   -0.0323851561   -2.2547643049
H       -1.9054496300   -0.5922093098   -0.9849564569
H        0.7656434626    0.6034338578   -0.7444154849
H        0.1667907007   -2.6196658513    4.7968979362
17   
Generated by ForceBalance from scan.xyz: Frame 23 of 24
C        1.4113025704   -0.0376839642    1.6573474224
C        1.6294484596   -0.5656958752    2.9193975092
C       -0.5665117021   -1.3788983269    1.4978512786
C        0.2861682746   -0.4387594524    0.9031057610
C        0.6969905257   -1.4944517820    3.4124244016
C       -0.9094522813   -0.5056004660   -1.2567105744
N       -0.3658702314   -1.8890215364    2.7288948740
N        0.0413549285    0.1322814651   -0.3554425075
O        0.8924366584   -2.0232165637    4.6583263399
H        2.1056260970    0.6930054948    1.2467579933
H        2.4853886745   -0.2795063330    3.5217817444
H       -1.4498741550   -1.7411179090    0.9798156717
H       -0.7034165549   -1.5747312667   -1.4251098990
H       -0.8822375707    0.0124516936   -2.2182980775
H       -1.9263773262   -0.4115419742   -0.8620664601
H        0.8955079911    0.4151374726   -0.8210783623
H        0.1476381763   -2.6335457830    4.8056618482
17   
Generated by ForceBalance from scan.xyz: Frame 24 of 24
C        1.4076395755   -0.0169785964    1.6774876239
C        1.5918970595   -0.5144707743    2.9566063941
C       -0.4944092562   -1.4550227191    1.4505145491
C        0.3478087959   -0.4953218378    0.8739857275
C        0.6796782091   -1.4771700148    3.4238323464
C       -0.9533205148   -0.4392441044   -1.2285592735
N       -0.3336313768   -1.9292800684    2.7024563761
N        0.1371837555    0.0528356458   -0.4016157832
O        0.8405168115   -1.9737118066    4.6874149827
H        2.0761379309    0.7479690936    1.2879156605
H        2.3985454582   -0.1718252271    3.5964407502
H       -1.3375857431   -1.8636908917    0.9011953897
H       -0.8952173459   -1.5176367092   -1.4493987900
H       -0.9499767618    0.1075542516   -2.1747768253
H       -1.9106902762   -0.2435574820   -0.7344995440
H        0.9959437378    0.2134951483   -0.9141785886
H        0.1163489987   -2.6129655074    4.8138150158
