24   
Generated by ForceBalance from scan.xyz: Frame 1 of 24
C       -0.8656500679   -1.2770972400    2.3822872252
C       -3.2245515538   -1.6165608406    1.9735215146
C       -2.1342579012   -3.0555159891    3.4039012969
C       -2.0564103076   -0.8950359334    1.7481269377
C       -0.9029534268   -2.3848373503    3.2299157470
C       -1.0660523876    0.0305974534   -0.3169816956
C       -1.5939001056    1.5279087544    1.5906416294
C       -3.3839083548    0.5860434505    0.2209327681
N       -3.2478306163   -2.6804971129    2.7923827523
N       -2.0289432802    0.2941910636    0.8245142504
O        0.1651499980   -2.8749593838    3.9009034463
H        0.0715372955   -0.7490697501    2.2303249213
H       -4.1734066720   -1.3665103092    1.5132007771
H       -2.1801088551   -3.9192265597    4.0639545642
H       -1.0789917442    0.8896560290   -0.9882767092
H       -0.0637275161   -0.1133378704    0.0797252459
H       -1.3907700689   -0.8692018245   -0.8382987503
H       -1.6044595204    2.3807771816    0.9115046414
H       -2.2905537255    1.6839488486    2.4135850337
H       -0.5892044205    1.3785828633    1.9791338389
H       -3.2778849911    1.4553450725   -0.4269993455
H       -3.7115692815   -0.2705105780   -0.3655256154
H       -4.0950350133    0.8049611549    1.0155767918
H        0.9031823964   -2.2432445397    3.9213171528
24   
Generated by ForceBalance from scan.xyz: Frame 2 of 24
C       -0.8563356319   -1.2817837532    2.3686570756
C       -3.2175788637   -1.6164216617    1.9735048296
C       -2.1200746294   -3.0633048924    3.3893736102
C       -2.0496242846   -0.8938762685    1.7445777741
C       -0.8903527435   -2.3944320490    3.2101336608
C       -1.0723350786    0.0303216357   -0.3268265416
C       -1.5786680473    1.5276770648    1.5864132618
C       -3.3838144418    0.5947978532    0.2302882470
N       -3.2381351570   -2.6846241537    2.7852822976
N       -2.0252866618    0.2968421027    0.8226038261
O        0.1925079991   -2.8908622639    3.8598246158
H        0.0833657931   -0.7602980605    2.2110853262
H       -4.1692702595   -1.3606272897    1.5219498986
H       -2.1629770990   -3.9305461161    4.0448797389
H       -1.0866692241    0.8903578341   -0.9968487469
H       -0.0677042283   -0.1189163274    0.0620533271
H       -1.4051929521   -0.8673149910   -0.8467281800
H       -1.5901459705    2.3812015339    0.9081199089
H       -2.2684225643    1.6865945325    2.4146207442
H       -0.5717056855    1.3731285777    1.9669532162
H       -3.2798429196    1.4650965928   -0.4166458705
H       -3.7191127420   -0.2591973770   -0.3555952862
H       -4.0880328215    0.8144974007    1.0308939895
H        0.8331978068   -2.1950810399    4.0816401411
24   
Generated by ForceBalance from scan.xyz: Frame 3 of 24
C       -0.8477038184   -1.2821350633    2.3576267197
C       -3.2103527400   -1.6140658927    1.9758647527
C       -2.1038523221   -3.0680748833    3.3774141465
C       -2.0428992281   -0.8900477999    1.7420812016
C       -0.8777018782   -2.3978867334    3.1949908587
C       -1.0782069642    0.0305878858   -0.3362064897
C       -1.5654135975    1.5300841958    1.5801138541
C       -3.3841253121    0.6027987713    0.2378965793
N       -3.2272358623   -2.6859880386    2.7810068703
N       -2.0222117995    0.3007754860    0.8200090861
O        0.2252791051   -2.8966794114    3.8190475274
H        0.0946558003   -0.7671743028    2.1962288619
H       -4.1646310864   -1.3544807189    1.5314488480
H       -2.1426084889   -3.9406536667    4.0260122399
H       -1.0939183298    0.8908166623   -1.0059572430
H       -0.0715727503   -0.1228191559    0.0458644268
H       -1.4181950691   -0.8656451624   -0.8539112075
H       -1.5778583377    2.3832803634    0.9014298415
H       -2.2489964396    1.6925525522    2.4127567182
H       -0.5564839990    1.3714306022    1.9537469639
H       -3.2827316915    1.4733449700   -0.4091251011
H       -3.7259971019   -0.2497080110   -0.3463895908
H       -4.0820105597    0.8236972434    1.0437610658
H        0.7478557863   -2.1965964864    4.2437800797
24   
Generated by ForceBalance from scan.xyz: Frame 4 of 24
C       -0.8396310380   -1.2778932545    2.3499315601
C       -3.2029077647   -1.6104756649    1.9814017433
C       -2.0865494725   -3.0690094522    3.3690262042
C       -2.0366515158   -0.8845226946    1.7409617489
C       -0.8650533150   -2.3945885002    3.1856769784
C       -1.0828991766    0.0307470623   -0.3441476055
C       -1.5556011954    1.5342091252    1.5724008718
C       -3.3847441052    0.6085643717    0.2426737458
N       -3.2160221784   -2.6849716113    2.7813167193
N       -2.0200179798    0.3048875881    0.8169210578
O        0.2610502268   -2.8916095147    3.7802878257
H        0.1050309769   -0.7682667676    2.1865043402
H       -4.1595615549   -1.3498943366    1.5422517107
H       -2.1205582178   -3.9480702464    4.0091057544
H       -1.0999808567    0.8903044137   -1.0147288651
H       -0.0747289895   -0.1250131714    0.0329650865
H       -1.4280617595   -0.8651286063   -0.8590459707
H       -1.5692019862    2.3862087443    0.8922388414
H       -2.2343010091    1.7003085672    2.4083291842
H       -0.5451109481    1.3730230387    1.9407782538
H       -3.2859491776    1.4783302142   -0.4058070343
H       -3.7315608689   -0.2438202872   -0.3389087267
H       -4.0775615305    0.8314504590    1.0524105856
H        0.6554925395   -2.2514746761    4.3954727996
24   
Generated by ForceBalance from scan.xyz: Frame 5 of 24
C       -0.8309184033   -1.2695345175    2.3465014136
C       -3.1943279217   -1.6050334287    1.9898049153
C       -2.0677130256   -3.0653119973    3.3669440356
C       -2.0297444012   -0.8779145862    1.7414436704
C       -0.8510638383   -2.3843872588    3.1838949854
C       -1.0843879103    0.0310216363   -0.3498088151
C       -1.5495899722    1.5399500659    1.5640838498
C       -3.3844444111    0.6102821966    0.2443394945
N       -3.2027682366   -2.6801913809    2.7879443014
N       -2.0174534875    0.3086238265    0.8138158684
O        0.2987160772   -2.8759607242    3.7451954688
H        0.1152365734   -0.7633472524    2.1822806557
H       -4.1530576732   -1.3464136696    1.5536744619
H       -2.0974098356   -3.9506370777    3.9987655618
H       -1.1034178772    0.8889577958   -1.0224071493
H       -0.0750732826   -0.1243043441    0.0244494273
H       -1.4317354226   -0.8659337120   -0.8613580667
H       -1.5652190879    2.3899099299    0.8814145682
H       -2.2252298411    1.7089466303    2.4019137704
H       -0.5378904814    1.3789985583    1.9292874716
H       -3.2887284364    1.4782091808   -0.4070638879
H       -3.7334786169   -0.2438436927   -0.3334006556
H       -4.0740502242    0.8353886049    1.0562456689
H        0.5673791026   -2.3591536335    4.5230229302
24   
Generated by ForceBalance from scan.xyz: Frame 6 of 24
C       -0.8279064813   -1.2545116852    2.3412577087
C       -3.1909239959   -1.5993672766    1.9959863006
C       -2.0505978698   -3.0558191810    3.3668612194
C       -2.0298885385   -0.8697567989    1.7387627803
C       -0.8394712530   -2.3652085085    3.1832404200
C       -1.0946471653    0.0347221870   -0.3585709755
C       -1.5579976052    1.5485739577    1.5518165109
C       -3.3948389661    0.6085122107    0.2416581282
N       -3.1910347527   -2.6732001007    2.7961485398
N       -2.0249086918    0.3133715866    0.8070957967
O        0.3325857019   -2.8442196665    3.7109710469
H        0.1173129634   -0.7472329767    2.1761678570
H       -4.1522346601   -1.3471311172    1.5616879744
H       -2.0753379264   -3.9453644798    3.9933809688
H       -1.1185609015    0.8903817953   -1.0339018580
H       -0.0837240142   -0.1162006280    0.0131523557
H       -1.4408290172   -0.8649879299   -0.8660638631
H       -1.5786191354    2.3961689773    0.8663418821
H       -2.2312478907    1.7182817465    2.3914226353
H       -0.5446248355    1.3916344584    1.9141070874
H       -3.3046267709    1.4746756067   -0.4128664672
H       -3.7430549373   -0.2487049878   -0.3320231814
H       -4.0822611515    0.8338641200    1.0553692671
H        0.4872787390   -2.5024908073    4.6076527632
24   
Generated by ForceBalance from scan.xyz: Frame 7 of 24
C       -0.8182797727   -1.2422631533    2.3427775262
C       -3.1813528721   -1.5936146940    2.0045401452
C       -2.0336890189   -3.0434467264    3.3768585265
C       -2.0219640335   -0.8642314237    1.7402889585
C       -0.8248714607   -2.3477479059    3.1913867294
C       -1.0907561480    0.0358308816   -0.3605900292
C       -1.5568401099    1.5544521351    1.5453877300
C       -3.3922010770    0.6049233958    0.2396681528
N       -3.1765866806   -2.6634299058    2.8103853538
N       -2.0210257762    0.3155767995    0.8047476902
O        0.3616220249   -2.8098206743    3.6969811205
H        0.1258993418   -0.7331978797    2.1781511384
H       -4.1438399814   -1.3471957297    1.5697029369
H       -2.0585595176   -3.9328557250    4.0041258972
H       -1.1172830872    0.8894753204   -1.0383623015
H       -0.0792757524   -0.1114551116    0.0110358117
H       -1.4350136106   -0.8661950673   -0.8652821999
H       -1.5804502784    2.3997716725    0.8572017359
H       -2.2299502958    1.7247815482    2.3849734176
H       -0.5428797474    1.4013031360    1.9075884946
H       -3.3051347332    1.4690955040   -0.4179040364
H       -3.7385767505   -0.2553180651   -0.3306143958
H       -4.0794349176    0.8311424780    1.0532939143
H        0.4180733572   -2.6719662293    4.6576450563
24   
Generated by ForceBalance from scan.xyz: Frame 8 of 24
C       -0.8064157831   -1.2305057399    2.3453862154
C       -3.1698704032   -1.5892453006    2.0133764274
C       -2.0162577592   -3.0279401046    3.3933274832
C       -2.0117729841   -0.8603919535    1.7426010492
C       -0.8083211325   -2.3302832710    3.2019611623
C       -1.0827681207    0.0373053592   -0.3603906035
C       -1.5564613938    1.5593409580    1.5410952208
C       -3.3868749581    0.5983349781    0.2366680843
N       -3.1602728417   -2.6527793508    2.8277354854
N       -2.0149381081    0.3163836410    0.8034660129
O        0.3856398713   -2.7696884092    3.6997182832
H        0.1356838721   -0.7180183210    2.1801438126
H       -4.1333585620   -1.3491941031    1.5775807790
H       -2.0428150890   -3.9128096589    4.0276092908
H       -1.1125561131    0.8889373431   -1.0405451672
H       -0.0709148986   -0.1045999887    0.0122335774
H       -1.4229275996   -0.8675605979   -0.8627808596
H       -1.5836432424    2.4026366632    0.8505552357
H       -2.2307082677    1.7287527412    2.3799441353
H       -0.5421171186    1.4115353977    1.9043717493
H       -3.3027742598    1.4602876175   -0.4241890505
H       -3.7297168987   -0.2655248840   -0.3302784319
H       -4.0753001349    0.8251259684    1.0490961701
H        0.3616227287   -2.8422417034    4.6689712274
24   
Generated by ForceBalance from scan.xyz: Frame 9 of 24
C       -0.7950351120   -1.2188443405    2.3489698761
C       -3.1588695542   -1.5859432626    2.0205150252
C       -2.0012545276   -3.0102655346    3.4127632971
C       -2.0016461027   -0.8571662334    1.7451726854
C       -0.7933719299   -2.3131861495    3.2135015072
C       -1.0728864916    0.0388812483   -0.3588076552
C       -1.5566814891    1.5638239498    1.5379159042
C       -3.3803068661    0.5912408312    0.2325703228
N       -3.1452278527   -2.6421131375    2.8443608085
N       -2.0082167453    0.3168126024    0.8026729936
O        0.4018604270   -2.7259128028    3.7183267607
H        0.1445349607   -0.7022271131    2.1825849696
H       -4.1229657109   -1.3520948345    1.5831508115
H       -2.0302530726   -3.8878054106    4.0578221648
H       -1.1056480355    0.8884590412   -1.0413821453
H       -0.0609835270   -0.0971794031    0.0157788622
H       -1.4080287746   -0.8689634356   -0.8591979820
H       -1.5869207213    2.4051486135    0.8450966268
H       -2.2330141406    1.7320053117    2.3753202343
H       -0.5422966155    1.4216920295    1.9032837456
H       -3.2983666546    1.4509155118   -0.4315120929
H       -3.7188954037   -0.2762172916   -0.3314184856
H       -4.0708783213    0.8186045604    1.0429705865
H        0.3168806916   -3.0014239448    4.6469988194
24   
Generated by ForceBalance from scan.xyz: Frame 10 of 24
C       -0.7866018669   -1.2085282783    2.3537727025
C       -3.1498426836   -1.5827394981    2.0262302849
C       -1.9910746861   -2.9912760868    3.4341300038
C       -1.9932202343   -0.8535073343    1.7478861252
C       -0.7822022946   -2.2978689731    3.2260735621
C       -1.0622567068    0.0410518583   -0.3563972011
C       -1.5583971285    1.5686933942    1.5351031062
C       -3.3735560757    0.5844108336    0.2267517571
N       -3.1338476791   -2.6311408323    2.8595690856
N       -2.0019840351    0.3176195762    0.8017249148
O        0.4094756015   -2.6816442046    3.7497973878
H        0.1510814252   -0.6890567337    2.1860214979
H       -4.1140560265   -1.3543190871    1.5866444221
H       -2.0234326531   -3.8596360700    4.0921138769
H       -1.0975178871    0.8885066777   -1.0414739152
H       -0.0506400640   -0.0888159141    0.0210408607
H       -1.3916194403   -0.8698447640   -0.8550838849
H       -1.5910941234    2.4081210166    0.8400914538
H       -2.2376716444    1.7354492433    2.3703996925
H       -0.5443651578    1.4323790871    1.9036061837
H       -3.2930123888    1.4416313289   -0.4406611875
H       -3.7072565578   -0.2867630748   -0.3344109498
H       -4.0671749449    0.8125250998    1.0342926764
H        0.2883173629   -3.1438798907    4.5969003945
24   
Generated by ForceBalance from scan.xyz: Frame 11 of 24
C       -0.7807232555   -1.1985198002    2.3594353356
C       -3.1435944050   -1.5799107348    2.0294745210
C       -1.9862798133   -2.9727866900    3.4543105339
C       -1.9870890414   -0.8499391308    1.7507842583
C       -0.7762735754   -2.2838708179    3.2378333250
C       -1.0527345266    0.0424618081   -0.3534443511
C       -1.5607261900    1.5730211677    1.5326589223
C       -3.3677930525    0.5781616502    0.2209931525
N       -3.1269859468   -2.6213151478    2.8711276343
N       -1.9970125283    0.3182664898    0.8010296608
O        0.4081215275   -2.6373833270    3.7903886081
H        0.1557229796   -0.6770639107    2.1909832943
H       -4.1073393152   -1.3555994732    1.5869538214
H       -2.0217597183   -3.8317983647    4.1248989321
H       -1.0895464759    0.8878638706   -1.0409666461
H       -0.0416752870   -0.0820372149    0.0272108581
H       -1.3768492583   -0.8711507993   -0.8506057616
H       -1.5948554553    2.4105534422    0.8354313782
H       -2.2431378099    1.7389491459    2.3655514575
H       -0.5473203891    1.4417366827    1.9046764071
H       -3.2881071720    1.4330275459   -0.4495303581
H       -3.6968866306   -0.2963940274   -0.3376234405
H       -4.0645194183    0.8070919126    1.0255973510
H        0.2787760793   -3.2639479612    4.5231603522
24   
Generated by ForceBalance from scan.xyz: Frame 12 of 24
C       -0.7795628603   -1.1897867075    2.3684840189
C       -3.1407997525   -1.5772172080    2.0316891902
C       -1.9882804569   -2.9547144911    3.4753463145
C       -1.9843976683   -0.8461785980    1.7545309796
C       -0.7765576800   -2.2709804419    3.2524000649
C       -1.0427993818    0.0420887700   -0.3486122507
C       -1.5637011543    1.5769074913    1.5304828724
C       -3.3618551468    0.5730296440    0.2133690825
N       -3.1258474330   -2.6122905580    2.8809964890
N       -1.9930837860    0.3186604726    0.8005988526
O        0.3978938750   -2.5934408076    3.8412738345
H        0.1564822322   -0.6673986515    2.2007009155
H       -4.1034330999   -1.3563211965    1.5851436550
H       -2.0274296170   -3.8040869739    4.1581289457
H       -1.0786659511    0.8853885393   -1.0387613909
H       -0.0331556326   -0.0784950946    0.0370074749
H       -1.3622066608   -0.8737835184   -0.8446718670
H       -1.5967701394    2.4121534512    0.8304677350
H       -2.2505296242    1.7434703759    2.3596034022
H       -0.5518033015    1.4494291541    1.9078966397
H       -3.2809556677    1.4250110064   -0.4606730635
H       -3.6866802668   -0.3047538545   -0.3426737735
H       -4.0625799846    0.8041940599    1.0138342332
H        0.2922673782   -3.3564640238    4.4354636210
24   
Generated by ForceBalance from scan.xyz: Frame 13 of 24
C       -0.7853758696   -1.1847812646    2.3762625133
C       -3.1445129981   -1.5771996340    2.0327930270
C       -1.9973345854   -2.9401356648    3.4943084462
C       -1.9887920017   -0.8449125526    1.7569382375
C       -0.7837011197   -2.2619317904    3.2647073408
C       -1.0414449374    0.0402917855   -0.3452345932
C       -1.5730761704    1.5783038994    1.5282492798
C       -3.3638948013    0.5666444885    0.2068813883
N       -3.1320234684   -2.6064360612    2.8893534691
N       -1.9966548629    0.3172042886    0.7997234192
O        0.3806009421   -2.5560996072    3.8899640876
H        0.1505509888   -0.6617917778    2.2096878968
H       -4.1060595376   -1.3593824114    1.5823171989
H       -2.0394050195   -3.7796822567    4.1887438249
H       -1.0769512113    0.8817322914   -1.0376704184
H       -0.0329033633   -0.0765335307    0.0444030145
H       -1.3566273149   -0.8776360910   -0.8402060312
H       -1.6058105939    2.4118270283    0.8261694208
H       -2.2632150658    1.7449860500    2.3545865396
H       -0.5622124300    1.4542808447    1.9095823118
H       -3.2825319325    1.4165573880   -0.4697098668
H       -3.6848779852   -0.3136975861   -0.3473691821
H       -4.0679060294    0.7989246318    1.0041367154
H        0.3328003096   -3.4234953136    4.3276943542
24   
Generated by ForceBalance from scan.xyz: Frame 14 of 24
C       -0.7951498112   -1.1833075490    2.3846688868
C       -3.1519517238   -1.5765143604    2.0338616205
C       -2.0128818163   -2.9268655619    3.5130409363
C       -1.9962345429   -0.8446193250    1.7587680469
C       -0.7964719864   -2.2557172574    3.2777126329
C       -1.0397317534    0.0375470926   -0.3408328037
C       -1.5829993663    1.5782723710    1.5269575164
C       -3.3657331675    0.5612848304    0.1984161756
N       -3.1444625146   -2.5997874708    2.8979861082
N       -2.0011461257    0.3151204108    0.7986552331
O        0.3574755632   -2.5280702763    3.9379369567
H        0.1415972028   -0.6610740709    2.2202984301
H       -4.1119183525   -1.3606438318    1.5789084259
H       -2.0585160881   -3.7560148842    4.2190632963
H       -1.0727145250    0.8777332055   -1.0349130782
H       -0.0330317946   -0.0770694335    0.0542033673
H       -1.3511427604   -0.8816058763   -0.8359311118
H       -1.6130399508    2.4103854867    0.8230834087
H       -2.2776487124    1.7456832248    2.3493541274
H       -0.5740156859    1.4561318106    1.9139039205
H       -3.2820080473    1.4091061684   -0.4805117293
H       -3.6831846082   -0.3211520761   -0.3545713182
H       -4.0738509731    0.7954984383    0.9914581954
H        0.3959936797   -3.4617849685    4.2074139515
24   
Generated by ForceBalance from scan.xyz: Frame 15 of 24
C       -0.8070414450   -1.1833862059    2.3923937015
C       -3.1628235119   -1.5742817414    2.0347981421
C       -2.0338670446   -2.9139764877    3.5307257247
C       -2.0057306188   -0.8451187835    1.7599294211
C       -0.8146335262   -2.2504165232    3.2903864009
C       -1.0385632723    0.0341834266   -0.3361530216
C       -1.5939820751    1.5772635639    1.5259644258
C       -3.3682850018    0.5557215449    0.1890549286
N       -3.1625027089   -2.5911120054    2.9068407687
N       -2.0067397753    0.3124292970    0.7973004606
O        0.3290508313   -2.5109463044    3.9816774945
H        0.1311137461   -0.6625923485    2.2311223434
H       -4.1205639247   -1.3592006074    1.5744426430
H       -2.0829102535   -3.7323219313    4.2483075012
H       -1.0681010646    0.8734016960   -1.0315522327
H       -0.0340410304   -0.0788098914    0.0648945842
H       -1.3462907153   -0.8858357415   -0.8319607127
H       -1.6204129740    2.4081780725    0.8205239383
H       -2.2936236665    1.7455022304    2.3439436313
H       -0.5872331092    1.4564018231    1.9191877793
H       -3.2816004593    1.4013851002   -0.4921932481
H       -3.6822572097   -0.3287597469   -0.3627113093
H       -4.0807819324    0.7921656339    0.9775034381
H        0.4748247223   -3.4677529526    4.0756501644
24   
Generated by ForceBalance from scan.xyz: Frame 16 of 24
C       -0.8215874994   -1.1857212100    2.4002452965
C       -3.1759754124   -1.5712310149    2.0354432618
C       -2.0582984958   -2.9038208826    3.5453860231
C       -2.0166211185   -0.8460911938    1.7601165010
C       -0.8363606977   -2.2475039965    3.3033688854
C       -1.0385238116    0.0302021317   -0.3323609075
C       -1.6038956664    1.5758163812    1.5245337852
C       -3.3711424836    0.5518615744    0.1797290519
N       -3.1842631127   -2.5819573545    2.9144996585
N       -2.0127309215    0.3098462783    0.7954513309
O        0.2970071901   -2.5080100758    4.0203034784
H        0.1181659173   -0.6663085416    2.2434848283
H       -4.1310549381   -1.3560065003    1.5692316519
H       -2.1104354533   -3.7131640146    4.2721995993
H       -1.0640346093    0.8685431262   -1.0289707327
H       -0.0361706026   -0.0821896443    0.0742914871
H       -1.3435833823   -0.8903359156   -0.8288734253
H       -1.6263201398    2.4057179445    0.8177557763
H       -2.3079681150    1.7453319095    2.3384337610
H       -0.5993243486    1.4554032344    1.9234947720
H       -3.2808762858    1.3956059952   -0.5034361003
H       -3.6826661312   -0.3340921312   -0.3711263031
H       -4.0875211814    0.7908147032    0.9639009062
H        0.5638382787   -3.4392662805    3.9375095722
24   
Generated by ForceBalance from scan.xyz: Frame 17 of 24
C       -0.8362828717   -1.1891115359    2.4078825218
C       -3.1903829548   -1.5669628108    2.0371966792
C       -2.0834321014   -2.8965596533    3.5568144683
C       -2.0276468124   -0.8474683399    1.7608219204
C       -0.8593308478   -2.2459900740    3.3160416109
C       -1.0387812933    0.0249288035   -0.3285381117
C       -1.6116292390    1.5735875776    1.5234058762
C       -3.3733492892    0.5492221030    0.1714280851
N       -3.2074000382   -2.5724438157    2.9218618547
N       -2.0180910347    0.3068782726    0.7940859696
O        0.2638420853   -2.5211008512    4.0506844719
H        0.1046744650   -0.6705383433    2.2548973347
H       -4.1425969975   -1.3508841092    1.5651951109
H       -2.1374273433   -3.6999640330    4.2894516215
H       -1.0597617484    0.8624662744   -1.0262581714
H       -0.0385028815   -0.0878158648    0.0831549743
H       -1.3423363661   -0.8957882062   -0.8256577807
H       -1.6298061409    2.4025748871    0.8154246511
H       -2.3194307609    1.7448671492    2.3336888107
H       -0.6091058573    1.4527479565    1.9274307482
H       -3.2787628958    1.3911819909   -0.5133580685
H       -3.6835545083   -0.3376781732   -0.3786926346
H       -4.0930715179    0.7912336262    0.9515843698
H        0.6558533800   -3.3739404858    3.7975888497
24   
Generated by ForceBalance from scan.xyz: Frame 18 of 24
C       -0.8487207008   -1.1930655993    2.4165300043
C       -3.2033177658   -1.5627815505    2.0408047614
C       -2.1052438460   -2.8944865601    3.5645106440
C       -2.0367895251   -0.8493907712    1.7637077343
C       -0.8797642451   -2.2462528156    3.3289702570
C       -1.0393181486    0.0172223565   -0.3243496863
C       -1.6148187899    1.5704277295    1.5229104924
C       -3.3741917919    0.5475221696    0.1669376267
N       -3.2276352851   -2.5651493594    2.9285230819
N       -2.0214554785    0.3031548563    0.7945727542
O        0.2328707525   -2.5498260922    4.0716378756
H        0.0925778598   -0.6742111969    2.2656232021
H       -4.1527785270   -1.3455318331    1.5636436168
H       -2.1593973965   -3.6971891876    4.2974264353
H       -1.0561209207    0.8535297767   -1.0236529007
H       -0.0405289362   -0.0966539356    0.0906928043
H       -1.3431582362   -0.9036949308   -0.8209349077
H       -1.6293161230    2.3982792028    0.8135106126
H       -2.3246622841    1.7443785495    2.3308286090
H       -0.6137140841    1.4484962204    1.9301484267
H       -3.2752538490    1.3879115447   -0.5191644579
H       -3.6847674666   -0.3397096520   -0.3824439492
H       -4.0958864432    0.7929515623    0.9441803792
H        0.7470049543   -3.2692966495    3.6681847052
24   
Generated by ForceBalance from scan.xyz: Frame 19 of 24
C       -0.8536974041   -1.2022946420    2.4288703219
C       -3.2098566207   -1.5592053353    2.0459502934
C       -2.1232871941   -2.9012322016    3.5679633016
C       -2.0379243611   -0.8537856232    1.7710009046
C       -0.8950970163   -2.2543835144    3.3431597731
C       -1.0299861175    0.0058770133   -0.3154109766
C       -1.6036399999    1.5640050130    1.5283418382
C       -3.3633981158    0.5481219494    0.1681764194
N       -3.2427523956   -2.5621470949    2.9325668461
N       -2.0137529951    0.2976728524    0.8003942198
O        0.2046169923   -2.5981327978    4.0855627450
H        0.0884467708   -0.6842680999    2.2791491885
H       -4.1558926543   -1.3380681620    1.5639015007
H       -2.1791849703   -3.7091920703    4.2945700013
H       -1.0407297124    0.8414063105   -1.0157603157
H       -0.0328392800   -0.1121056236    0.1024329242
H       -1.3367529508   -0.9141634859   -0.8118261523
H       -1.6122207584    2.3910977576    0.8179549427
H       -2.3151246836    1.7421027286    2.3339055616
H       -0.6043404068    1.4382429450    1.9388245164
H       -3.2579862532    1.3874273054   -0.5182931468
H       -3.6766024137   -0.3380427180   -0.3814019997
H       -4.0863296706    0.7978725379    0.9428599820
H        0.8303506229   -3.1355356161    3.5718111857
24   
Generated by ForceBalance from scan.xyz: Frame 20 of 24
C       -0.8627205757   -1.2097321295    2.4334324839
C       -3.2217559435   -1.5548369474    2.0495640114
C       -2.1407703344   -2.9089325101    3.5651408726
C       -2.0460863183   -0.8566770569    1.7750702281
C       -0.9099373038   -2.2620781872    3.3480163321
C       -1.0343194210   -0.0048196383   -0.3131718329
C       -1.6005545381    1.5590249864    1.5282323461
C       -3.3646457670    0.5491979832    0.1699415105
N       -3.2581845940   -2.5604972533    2.9338137036
N       -2.0160730499    0.2932216642    0.8026215523
O        0.1773332665   -2.6444470673    4.0830931130
H        0.0792049749   -0.6920271048    2.2799024931
H       -4.1663469322   -1.3298714008    1.5667801600
H       -2.1963614895   -3.7242712440    4.2832903396
H       -1.0418908961    0.8293663007   -1.0151583293
H       -0.0373283520   -0.1261435728    0.1040362352
H       -1.3452319009   -0.9245531407   -0.8075626578
H       -1.6063023211    2.3851141205    0.8166472034
H       -2.3108256549    1.7410792685    2.3339753654
H       -0.6015040604    1.4301930357    1.9383332126
H       -3.2550272012    1.3869964865   -0.5177049401
H       -3.6820424802   -0.3362892212   -0.3782551428
H       -4.0863202989    0.8035288580    0.9442677569
H        0.8981485790   -2.9678868602    3.5177420177
24   
Generated by ForceBalance from scan.xyz: Frame 21 of 24
C       -0.8687354926   -1.2200202194    2.4337023324
C       -3.2312341915   -1.5524271176    2.0513837505
C       -2.1536457029   -2.9210515948    3.5575354614
C       -2.0528620700   -0.8606470274    1.7781003168
C       -0.9193754031   -2.2748462016    3.3457088875
C       -1.0418956322   -0.0155612117   -0.3135570632
C       -1.5937975299    1.5527592979    1.5287006995
C       -3.3670936921    0.5524751710    0.1762461253
N       -3.2687718541   -2.5633545815    2.9312543390
N       -2.0181633255    0.2887895422    0.8053238846
O        0.1556859901   -2.6912006332    4.0707591983
H        0.0731129411   -0.7035530402    2.2741431106
H       -4.1755878020   -1.3221506025    1.5710655889
H       -2.2091797228   -3.7440733861    4.2668495510
H       -1.0476322390    0.8178215795   -1.0165154513
H       -0.0440055708   -0.1416177402    0.1000086056
H       -1.3592464023   -0.9343356867   -0.8056110848
H       -1.5978574394    2.3785837482    0.8167992466
H       -2.3003302123    1.7386984853    2.3368352443
H       -0.5939655001    1.4194367988    1.9353763832
H       -3.2544373699    1.3897641246   -0.5115211364
H       -3.6908580293   -0.3311634540   -0.3711260544
H       -4.0851466319    0.8105910690    0.9526544821
H        0.9484921663   -2.7889340846    3.5180327423
24   
Generated by ForceBalance from scan.xyz: Frame 22 of 24
C       -0.8730237789   -1.2325119822    2.4290081196
C       -3.2391834302   -1.5526431542    2.0516484978
C       -2.1634068013   -2.9353323463    3.5461577643
C       -2.0591968531   -0.8656274403    1.7791823515
C       -0.9252053620   -2.2915008676    3.3362268189
C       -1.0526160438   -0.0254581022   -0.3164427342
C       -1.5855374315    1.5454335673    1.5294244920
C       -3.3713001942    0.5577976174    0.1849637131
N       -3.2769989583   -2.5698596327    2.9258931357
N       -2.0211659764    0.2846380587    0.8076473897
O        0.1402498335   -2.7365178962    4.0488945889
H        0.0693027768   -0.7187810027    2.2619275570
H       -4.1844255395   -1.3159030595    1.5767581946
H       -2.2191503541   -3.7646428506    4.2481357250
H       -1.0572649326    0.8078867629   -1.0194592682
H       -0.0532646179   -0.1575261873    0.0916303314
H       -1.3779236358   -0.9425123762   -0.8064732782
H       -1.5884803541    2.3718234274    0.8181801816
H       -2.2866250731    1.7349455197    2.3414618494
H       -0.5842918799    1.4061984995    1.9305521199
H       -3.2563323528    1.3956140811   -0.5017673989
H       -3.7028201495   -0.3228385738   -0.3625170801
H       -4.0842476025    0.8187601119    0.9650898188
H        0.9753088352   -2.6145931024    3.5676380959
24   
Generated by ForceBalance from scan.xyz: Frame 23 of 24
C       -0.8759807618   -1.2465867304    2.4196496350
C       -3.2455732160   -1.5545005019    2.0495661175
C       -2.1697173482   -2.9507824943    3.5322136857
C       -2.0645615808   -0.8709826533    1.7775927408
C       -0.9279388046   -2.3110330235    3.3203207214
C       -1.0651127069   -0.0333097183   -0.3221173849
C       -1.5766117237    1.5379042835    1.5297054373
C       -3.3766232438    0.5644763074    0.1945181149
N       -3.2825209415   -2.5780562299    2.9179002452
N       -2.0245835867    0.2812775625    0.8086892915
O        0.1324446633   -2.7783411993    4.0192473893
H        0.0675255041   -0.7372204187    2.2448130309
H       -4.1924970710   -1.3101675692    1.5822515069
H       -2.2257920494   -3.7842856574    4.2292765288
H       -1.0693621887    0.8009084052   -1.0241040770
H       -0.0639528502   -0.1721843161    0.0791690385
H       -1.3991300601   -0.9478975618   -0.8108629496
H       -1.5789405681    2.3656172236    0.8200069006
H       -2.2712815595    1.7303411136    2.3465613799
H       -0.5736123631    1.3919888799    1.9239769052
H       -3.2603584637    1.4035243247   -0.4904806144
H       -3.7165399734   -0.3125484095   -0.3535416244
H       -4.0834477409    0.8273530257    0.9795498396
H        0.9758117544   -2.4576179789    3.6586356903
24   
Generated by ForceBalance from scan.xyz: Frame 24 of 24
C       -0.8773417363   -1.2596984400    2.4071121142
C       -3.2498247827   -1.5578180819    2.0465815751
C       -2.1715135389   -2.9655302551    3.5171409520
C       -2.0684844598   -0.8758520078    1.7740853821
C       -0.9276050474   -2.3301695403    3.3005953788
C       -1.0790548751   -0.0390381228   -0.3302256412
C       -1.5681198298    1.5311919643    1.5285499211
C       -3.3832119155    0.5715075404    0.2042319261
N       -3.2850871113   -2.5870424332    2.9088909750
N       -2.0285772008    0.2789369597    0.8082710406
O        0.1338303503   -2.8137440244    3.9841477298
H        0.0676874481   -0.7556167755    2.2248975233
H       -4.1989890409   -1.3059723757    1.5879944744
H       -2.2271293008   -3.8017471173    4.2110321145
H       -1.0837800288    0.7965128706   -1.0306290940
H       -0.0758304132   -0.1846629924    0.0634368127
H       -1.4218675998   -0.9508846708   -0.8179748133
H       -1.5707596346    2.3605014103    0.8207270999
H       -2.2556460884    1.7259988882    2.3508804326
H       -0.5630119053    1.3787418228    1.9148765425
H       -3.2669845958    1.4121443640   -0.4788189609
H       -3.7315269328   -0.3018054073   -0.3444351179
H       -4.0832666883    0.8354631924    0.9949595003
H        0.9498135742   -2.3261629242    3.7821659702
