19   
Generated by ForceBalance from scan.xyz: Frame 1 of 24
C        1.2167142284    0.0432352003    1.6684851589
C       -0.6702080522   -1.4619490745    1.6077245584
C        0.6092965992   -1.3624810020    3.5152876736
C        0.1358030269   -0.5004006670    0.9751274280
C        1.4780050296   -0.3840518376    2.9801552839
C       -0.1162121059   -0.0351259861   -0.4136283815
C        3.0091641109   -0.4684752386    4.9270244867
N       -0.4324181868   -1.8808792698    2.8537638658
N        2.5213791824    0.1706624242    3.7122702188
O        0.5614033713    0.7867666897   -1.0064830174
O       -1.2010584157   -0.6232838215   -0.9862141783
H        1.8375959621    0.7916822889    1.1822535448
H       -1.5192201443   -1.9002014112    1.0917943404
H        0.7622851095   -1.7404303123    4.5231033334
H        2.2533696960   -0.4164204041    5.7173087588
H        3.8886421030    0.0756996324    5.2776601303
H        3.2839726486   -1.5237097720    4.7788860212
H        3.2429522235    0.5896224598    3.1394658137
H       -1.2667228096   -0.2451634495   -1.8838014963
19   
Generated by ForceBalance from scan.xyz: Frame 2 of 24
C        1.1905228033    0.0643333391    1.7094854966
C       -0.6975634498   -1.4387314442    1.6439992925
C        0.5257455465   -1.2763885662    3.5829909759
C        0.1257413771   -0.4984680755    1.0040396114
C        1.4052662219   -0.3102778591    3.0438589130
C       -0.0815806092   -0.0841553570   -0.4079094387
C        3.0732317449   -0.5129055904    4.8582903529
N       -0.4935956994   -1.8201797892    2.9090492201
N        2.4331795320    0.2592533110    3.7946751006
O        0.6172223001    0.7145771941   -1.0077760508
O       -1.1497222829   -0.6905251628   -0.9924899529
H        1.8322562380    0.7881389938    1.2128086587
H       -1.5325211194   -1.8930630622    1.1190915602
H        0.6526101441   -1.6211256748    4.6066837237
H        2.4062086027   -0.6103801685    5.7199975389
H        3.9606499955    0.0280267062    5.1939784291
H        3.3724192236   -1.5204077234    4.5338834944
H        3.0985479801    0.7577046857    3.2155205609
H       -1.1864413193   -0.3451683615   -1.9048208407
19   
Generated by ForceBalance from scan.xyz: Frame 3 of 24
C        1.1786847063    0.0685857472    1.7493548930
C       -0.7247617823   -1.4133741978    1.6566123797
C        0.4261724747   -1.2078830739    3.6329652347
C        0.1280848163   -0.4986887847    1.0221682894
C        1.3369236262   -0.2682442029    3.0992104938
C       -0.0262702354   -0.1196347116   -0.4061889414
C        3.1357332214   -0.5700304434    4.7613969330
N       -0.5709249536   -1.7640121910    2.9394354736
N        2.3470277013    0.3022509214    3.8847722263
O        0.6995873084    0.6582242623   -1.0012660466
O       -1.0781636775   -0.7333119861   -1.0119211948
H        1.8496227582    0.7667783303    1.2545410863
H       -1.5463777831   -1.8730081271    1.1154690843
H        0.5103222647   -1.5162355596    4.6731072378
H        2.5292862245   -0.9250719247    5.5984058249
H        3.9575890982    0.0139338707    5.1824759891
H        3.5497877386   -1.4431617564    4.2360903653
H        2.9465852529    0.8985919605    3.3242172527
H       -1.0808754027   -0.4114898185   -1.9335558080
19   
Generated by ForceBalance from scan.xyz: Frame 4 of 24
C        1.1754747398    0.0614163779    1.8001879266
C       -0.7570829398   -1.3802569782    1.6971982130
C        0.3271401795   -1.1209829976    3.7026594966
C        0.1323185181   -0.5061445499    1.0585144306
C        1.2813822931   -0.2309288793    3.1629417670
C        0.0280584039   -0.1724453644   -0.3854178922
C        3.2050639546   -0.6014746646    4.6442242491
N       -0.6564017555   -1.6857071186    2.9983263172
N        2.2811801540    0.3316703474    3.9815039033
O        0.7870538476    0.5713745741   -0.9825225919
O       -1.0170054110   -0.7862022959   -1.0026666299
H        1.8796240990    0.7246299273    1.3035395744
H       -1.5710412573   -1.8416876327    1.1458500408
H        0.3661781224   -1.3740220614    4.7610226831
H        2.6592132594   -1.2379789310    5.3441190041
H        3.9307517279   -0.0237878873    5.2226169380
H        3.7435050076   -1.2485986296    3.9358377433
H        2.8064229558    1.0272662324    3.4594313850
H       -0.9857600704   -0.4959811447   -1.9342354088
19   
Generated by ForceBalance from scan.xyz: Frame 5 of 24
C        1.1743120639    0.0413180661    1.8474252714
C       -0.7805125795   -1.3674598644    1.7222828962
C        0.2365253600   -1.0642318759    3.7537221561
C        0.1445552123   -0.5288942343    1.0869129524
C        1.2233705924   -0.2102288932    3.2198143983
C        0.0922091610   -0.2362625177   -0.3685528254
C        3.2565089921   -0.6185273670    4.5050601228
N       -0.7324527826   -1.6366451768    3.0347963123
N        2.2161309548    0.3318477169    4.0740988873
O        0.8813413354    0.4790611388   -0.9612076546
O       -0.9413909708   -0.8531208922   -1.0016874831
H        1.9089579571    0.6754245733    1.3570597583
H       -1.5839627224   -1.8303853804    1.1565903707
H        0.2410638518   -1.2768058434    4.8221207081
H        2.7991220013   -1.4301345511    5.0763897539
H        3.9580830584   -0.0998095874    5.1641529180
H        3.8122419090   -1.0610772613    3.6643086054
H        2.6582071193    1.1261313500    3.6178389483
H       -0.8760260223   -0.5910952388   -1.9398442352
19   
Generated by ForceBalance from scan.xyz: Frame 6 of 24
C        1.1750000786    0.0169391198    1.9099093326
C       -0.8186260397   -1.3310289490    1.7453435038
C        0.1374241712   -1.0185116551    3.8037577412
C        0.1550612226   -0.5367814270    1.1242550947
C        1.1643819516   -0.2065692003    3.2873434744
C        0.1615841970   -0.2741416583   -0.3378088112
C        3.2997933211   -0.6137993821    4.3671099126
N       -0.8263517275   -1.5755342611    3.0629242766
N        2.1578097332    0.3002647243    4.1763159655
O        0.9940417857    0.4017763143   -0.9170548032
O       -0.8699436513   -0.8707325325   -0.9931667386
H        1.9469393134    0.6176288138    1.4349473101
H       -1.6166535259   -1.7793458036    1.1600905696
H        0.1074365150   -1.2087563165    4.8758647603
H        2.9476024845   -1.5415403539    4.8264539375
H        4.0155434572   -0.1487159882    5.0509146069
H        3.8139247130   -0.8704921856    3.4278210445
H        2.5069561563    1.1845166602    3.8121343591
H       -0.7643984149   -0.6322843550   -1.9339775567
19   
Generated by ForceBalance from scan.xyz: Frame 7 of 24
C        0.7465801839   -0.0033864523    2.3939225098
C        0.0266761248   -1.8458830485    1.0091753641
C        1.2474214225   -2.2901303204    2.8955927835
C        0.0826558175   -0.4637347599    1.2539246744
C        1.3687513685   -0.9301787156    3.2370645049
C       -0.5633683854    0.5315721398    0.3585558252
C        3.3076930976    0.1597410258    4.2452957961
N        0.5899703725   -2.7456293611    1.8220459583
N        2.0069625694   -0.5082948024    4.4292744409
O       -0.5363559845    1.7378092139    0.5273170910
O       -1.2041100207   -0.0374553121   -0.6981955200
H        0.7657724071    1.0594746752    2.6154451567
H       -0.4901681459   -2.2297945325    0.1343516531
H        1.7005040981   -3.0473839144    3.5378912840
H        4.0522290602   -0.4740054187    3.7401477870
H        3.6950076872    0.4560444476    5.2239889511
H        3.1722004330    1.0671296756    3.6512458447
H        2.1291481046   -1.3082300141    5.0460596566
H       -1.5836438457    0.7017035084   -1.2106932790
19   
Generated by ForceBalance from scan.xyz: Frame 8 of 24
C        0.8224130208   -0.0449459184    2.3841920295
C       -0.0485323044   -1.8701039137    1.0606360652
C        1.1829705744   -2.3476253485    2.9327892169
C        0.1033593014   -0.4904962039    1.2720411707
C        1.4000181461   -0.9893024394    3.2419029237
C       -0.4937498593    0.5248864276    0.3652629531
C        3.2472741866    0.2720497740    4.2579612295
N        0.4771339608   -2.7833521933    1.8846641501
N        2.0769205308   -0.6049931836    4.4146477187
O       -0.3825226325    1.7306235194    0.5022355935
O       -1.1952889682   -0.0238638507   -0.6630729577
H        0.9140464002    1.0213623528    2.5653036727
H       -0.6070804906   -2.2407760295    0.2062460267
H        1.6023830193   -3.1180602442    3.5825011961
H        4.0253579284   -0.1602439662    3.6115911936
H        3.6720449191    0.4694300009    5.2455520460
H        2.9421632911    1.2315370742    3.8340189502
H        2.3290860556   -1.4278675568    4.9552820834
H       -1.5355163035    0.7273411762   -1.1855145505
19   
Generated by ForceBalance from scan.xyz: Frame 9 of 24
C        0.9009934716   -0.0833728947    2.3541814705
C       -0.1197885433   -1.8752996646    1.0901447263
C        1.1243644174   -2.3947942336    2.9435523384
C        0.1235321849   -0.5062507504    1.2713461656
C        1.4341682080   -1.0449548203    3.2221673786
C       -0.4261497836    0.5276674326    0.3557413285
C        3.1793829472    0.3445459011    4.2709922132
N        0.3728387992   -2.8039222717    1.9200555872
N        2.1567483206   -0.7020755092    4.3708534483
O       -0.2343805791    1.7263733814    0.4647685548
O       -1.1848075224    0.0064231293   -0.6460271240
H        1.0716272779    0.9785969982    2.4958747666
H       -0.7212708175   -2.2272403592    0.2575213412
H        1.5112416157   -3.1777611890    3.5986483867
H        3.8953799126    0.1675336969    3.4552708419
H        3.7225241397    0.3912644725    5.2177944580
H        2.7125040662    1.3206320762    4.1160378367
H        2.5210037313   -1.5298697256    4.8314893583
H       -1.4869013152    0.7683989137   -1.1761907428
19   
Generated by ForceBalance from scan.xyz: Frame 10 of 24
C        0.9709313931   -0.1166454542    2.3332237012
C       -0.1770912103   -1.8840122517    1.1436867282
C        1.0778554107   -2.4218216578    2.9849305719
C        0.1422184302   -0.5273462487    1.2822386655
C        1.4644658932   -1.0811595655    3.2210467987
C       -0.3691289351    0.5093904634    0.3481564123
C        3.0995121035    0.4198723315    4.2999718772
N        0.2884697712   -2.8165809264    1.9875744607
N        2.2378857811   -0.7601791121    4.3347056584
O       -0.1117410418    1.6988018098    0.4199458130
O       -1.1741188772    0.0036579572   -0.6250973640
H        1.2095283752    0.9367069024    2.4309764623
H       -0.8167953571   -2.2258664940    0.3359354875
H        1.4375643867   -3.2060209500    3.6538796062
H        3.7343723493    0.4594272168    3.4026096499
H        3.7385211551    0.4114760282    5.1856096165
H        2.4991130123    1.3337013775    4.3388444682
H        2.6948833082   -1.5719712330    4.7338507671
H       -1.4452077028    0.7668742118   -1.1699761569
19   
Generated by ForceBalance from scan.xyz: Frame 11 of 24
C        1.0361123361   -0.1482466558    2.2932861574
C       -0.2271584931   -1.8893910871    1.1831144470
C        1.0483112048   -2.4388232946    3.0079616303
C        0.1572411249   -0.5468697155    1.2777580921
C        1.5002071111   -1.1099705596    3.2001377718
C       -0.3274429111    0.4875646110    0.3273806217
C        3.0373770662    0.4653617781    4.3265265029
N        0.2201275141   -2.8214341198    2.0391818550
N        2.3344838833   -0.8082840319    4.2682130973
O       -0.0135430576    1.6651908945    0.3613022485
O       -1.1779050646   -0.0044402184   -0.6138401605
H        1.3313820212    0.8933588974    2.3494327155
H       -0.9051593117   -2.2215388104    0.4031099303
H        1.3887028495   -3.2206188585    3.6894902972
H        3.6388486510    0.6665503755    3.4271503179
H        3.6980995202    0.4613460338    5.1959627740
H        2.3257719841    1.2873120654    4.4554468527
H        2.8571846564   -1.6000700871    4.6203191915
H       -1.4256566447    0.7566497608   -1.1725921857
19   
Generated by ForceBalance from scan.xyz: Frame 12 of 24
C        1.0924833765   -0.1609931327    2.2213643143
C       -0.2523496097   -1.8884671653    1.1873363111
C        1.0777742932   -2.4418457473    2.9722059235
C        0.1724722995   -0.5557766005    1.2417390511
C        1.5819530564   -1.1242988100    3.1150961810
C       -0.3293326445    0.4770297605    0.2985864871
C        3.0463033826    0.4929930674    4.3033152969
N        0.1947842751   -2.8149016731    2.0498734053
N        2.5024581518   -0.8362859991    4.1026045304
O        0.0044391071    1.6497511766    0.3079399657
O       -1.2215109586   -0.0098805707   -0.6061504249
H        1.4027237064    0.8771066229    2.2606451441
H       -0.9656804967   -2.2163719050    0.4377463271
H        1.4235286176   -3.2208042186    3.6542740653
H        3.5520587969    0.8426526810    3.3960091987
H        3.7866022779    0.4539585324    5.1050591032
H        2.2788353231    1.2326955484    4.5763224473
H        2.5733888570   -1.4948109768    4.8645008483
H       -1.4761186353    0.7498197632   -1.1636780139
19   
Generated by ForceBalance from scan.xyz: Frame 13 of 24
C        1.1386437243   -0.1584822408    2.1587280723
C       -0.3005962643   -1.8630199694    1.2193088044
C        1.0692797905   -2.4141625881    2.9739219652
C        0.1710937564   -0.5452371357    1.2223144980
C        1.6194699171   -1.1118614148    3.0657170717
C       -0.3241976379    0.4785432068    0.2658640177
C        2.9850935849    0.5304787490    4.3117002652
N        0.1443586072   -2.7818956336    2.0907329342
N        2.6103619989   -0.8412068266    3.9995567819
O        0.0466981081    1.6395728909    0.2352215631
O       -1.2560257611   -0.0029083885   -0.6008214115
H        1.4888761562    0.8674759084    2.1543886833
H       -1.0517773565   -2.1846883423    0.5047030771
H        1.4126401976   -3.1869075054    3.6642400187
H        3.4617875985    1.0014999058    3.4459506432
H        3.7147110159    0.5181212277    5.1241007914
H        2.1290935359    1.1517724734    4.6156491621
H        2.6211750906   -1.4766328525    4.7870401095
H       -1.5027633059    0.7496518448   -1.1714504493
19   
Generated by ForceBalance from scan.xyz: Frame 14 of 24
C        1.1943353225   -0.1619836145    2.0982283136
C       -0.3424373266   -1.8303920268    1.2550061006
C        1.0490355793   -2.3825051614    2.9913666131
C        0.1834895212   -0.5333579269    1.2035934805
C        1.6526158075   -1.1030959101    3.0289607971
C       -0.2921778626    0.4794974293    0.2254914850
C        2.9371942238    0.5170964341    4.3764063777
N        0.0884356422   -2.7403273092    2.1411284814
N        2.7006185656   -0.8480114713    3.9110591096
O        0.1256732297    1.6221101610    0.1485123132
O       -1.2637038972    0.0097875572   -0.6030802935
H        1.5946233000    0.8445855265    2.0471695913
H       -1.1274938696   -2.1406055487    0.5723624259
H        1.3773108012   -3.1477677118    3.6974176809
H        3.3453528678    1.1316232600    3.5684697928
H        3.6828953601    0.4894475603    5.1738476311
H        2.0265076954    1.0030341381    4.7563569348
H        2.7539787263   -1.5345355004    4.6546989110
H       -1.4933881680    0.7530727095   -1.1927019383
19   
Generated by ForceBalance from scan.xyz: Frame 15 of 24
C        1.2401959868   -0.1627108201    2.0261896283
C       -0.3837576893   -1.8036875435    1.3051806687
C        1.0386303191   -2.3321557162    3.0226813341
C        0.1866853005   -0.5286135376    1.1823497862
C        1.6867786967   -1.0773265724    2.9886753035
C       -0.2795335698    0.4580363280    0.1730638770
C        2.8903237416    0.4989310842    4.4529554874
N        0.0421088311   -2.6922872294    2.2122985333
N        2.7838637858   -0.8191360552    3.8185412002
O        0.1757751895    1.5802123180    0.0352775424
O       -1.2894499193   -0.0118993545   -0.6079983640
H        1.6861820285    0.8199407852    1.9145558877
H       -1.2016896869   -2.1107315173    0.6605161755
H        1.3594340062   -3.0792616322    3.7512481372
H        3.1103818595    1.2655703732    3.7055659060
H        3.7272883520    0.4803362437    5.1549104183
H        1.9769349020    0.7901098077    4.9917982281
H        2.9108409129   -1.5656607814    4.4943324032
H       -1.5100696580    0.7128263432   -1.2236619943
19   
Generated by ForceBalance from scan.xyz: Frame 16 of 24
C        1.2848500535   -0.1605603612    1.9509558939
C       -0.4320916740   -1.7526255296    1.3524459857
C        1.0105767836   -2.2666202457    3.0566062524
C        0.1912194213   -0.5102677489    1.1546672674
C        1.7101631289   -1.0474284688    2.9478197752
C       -0.2547501841    0.4474122424    0.1088263560
C        2.8312034310    0.4438983643    4.5462080479
N       -0.0216460169   -2.6200130602    2.2843959256
N        2.8464111048   -0.7832056089    3.7354253586
O        0.2479859315    1.5386430728   -0.0946643042
O       -1.3053853808   -0.0119739737   -0.6232217808
H        1.7866049532    0.7863152064    1.7781165731
H       -1.2806972841   -2.0490985949    0.7430830278
H        1.3173532214   -2.9944653519    3.8100867457
H        2.7844025091    1.3212548805    3.8969729682
H        3.7653220599    0.5025112259    5.1107397707
H        1.9842563781    0.4861371825    5.2468991454
H        3.0556095528   -1.5855581858    4.3231642499
H       -1.5092395116    0.6913308507   -1.2688330828
19   
Generated by ForceBalance from scan.xyz: Frame 17 of 24
C        1.3169172219   -0.1510734400    1.8707272049
C       -0.4826877157   -1.6915497936    1.4041639145
C        0.9852678511   -2.1831358799    3.0921777103
C        0.1851497558   -0.4879258060    1.1237593247
C        1.7284744417   -1.0033711127    2.9008511412
C       -0.2499640057    0.4321772207    0.0403363951
C        2.7750976989    0.3657317616    4.6311609222
N       -0.0834075664   -2.5312726862    2.3649237954
N        2.9002061856   -0.7234418085    3.6461372863
O        0.2937276368    1.4871024872   -0.2348971723
O       -1.3416537595   -0.0175334650   -0.6357033887
H        1.8649582495    0.7576248647    1.6404631889
H       -1.3600770144   -1.9804990097    0.8327461383
H        1.2847996970   -2.8857524091    3.8718433526
H        2.5274544995    1.2976351444    4.1165553824
H        3.7385606476    0.5049748518    5.1291535586
H        2.0013010846    0.1759908503    5.3903449646
H        3.2045599664   -1.5688606618    4.1235472976
H       -1.5348369302    0.6590101060   -1.3124791996
19   
Generated by ForceBalance from scan.xyz: Frame 18 of 24
C        1.4015721696   -0.2154275492    1.7883352826
C       -0.5132285842   -1.6624717820    1.5465203911
C        0.9792347464   -2.0771835529    3.2345255719
C        0.2329761698   -0.5640955328    1.0977318439
C        1.8044562366   -0.9961887573    2.8725357161
C       -0.1755940416    0.2589780173   -0.0694245298
C        2.7155752031    0.1609937571    4.8018310724
N       -0.1522268289   -2.4052014254    2.6019246262
N        2.9689793409   -0.7251626868    3.6500405223
O        0.4392271602    1.2258027323   -0.4849012578
O       -1.3278563741   -0.1706309752   -0.6501209219
H        1.9767278510    0.6473365725    1.4609965241
H       -1.4273545885   -1.9510375988    1.0351879856
H        1.2715040138   -2.7015116894    4.0779119780
H        2.2890147465    1.1351597235    4.5163297566
H        3.6556379344    0.3250650648    5.3361896360
H        2.0180451339   -0.3278277127    5.4875682047
H        3.6703845257   -0.2901869241    3.0539980713
H       -1.4961747029    0.4373415861   -1.3952108958
19   
Generated by ForceBalance from scan.xyz: Frame 19 of 24
C        1.3945807360   -0.1818655881    1.7306577837
C       -0.5392374909   -1.6157174489    1.5675951826
C        0.9563844126   -1.9644216969    3.2689397990
C        0.2195822713   -0.5518812439    1.0625340115
C        1.7941204361   -0.9090379992    2.8534739191
C       -0.1829778388    0.2172613539   -0.1429109271
C        2.7551232145    0.0470946098    4.8819097820
N       -0.1802569059   -2.3082574002    2.6579988299
N        2.9725386700   -0.6210786880    3.5866864888
O        0.4425292458    1.1537160135   -0.6092256842
O       -1.3431741909   -0.2254880348   -0.6975441242
H        1.9769652027    0.6570000906    1.3573063177
H       -1.4589860643   -1.9189498560    1.0757051741
H        1.2412915314   -2.5568909067    4.1375550626
H        2.2329723409    1.0115189727    4.7881084068
H        3.7236278601    0.2098965436    5.3627118338
H        2.1627582526   -0.5993627668    5.5342332075
H        3.5943985027   -0.0517462185    3.0177902305
H       -1.5057065142    0.3464681260   -1.4718288355
19   
Generated by ForceBalance from scan.xyz: Frame 20 of 24
C        1.3910659529   -0.1527110576    1.6921166321
C       -0.5475287261   -1.5851884181    1.5795807559
C        0.9322697268   -1.8561950308    3.3119310222
C        0.2206105681   -0.5481994209    1.0336185154
C        1.7803459111   -0.8240002819    2.8548862661
C       -0.1694402740    0.1685535903   -0.2078852106
C        2.8224025983   -0.0684961417    4.9467885492
N       -0.1981876082   -2.2245205376    2.7043313773
N        2.9648266614   -0.5075171451    3.5500177189
O        0.4602747890    1.0848140248   -0.7076881722
O       -1.3236028970   -0.2983826799   -0.7553393809
H        1.9794662837    0.6649700202    1.2828382919
H       -1.4642836182   -1.9083528114    1.0952511785
H        1.1968186073   -2.4113006877    4.2105570088
H        2.1809193955    0.8188027160    5.0547836052
H        3.8147887215    0.1575977637    5.3454489105
H        2.4004282171   -0.8731295403    5.5529365028
H        3.5031637153    0.1761902812    3.0255576492
H       -1.4778460596    0.2402006636   -1.5548151347
19   
Generated by ForceBalance from scan.xyz: Frame 21 of 24
C        1.3813499880   -0.1288923034    1.6537281640
C       -0.5703848544   -1.5470577968    1.5826006843
C        0.8795573845   -1.7409379200    3.3536813941
C        0.2157561946   -0.5413621418    1.0016705653
C        1.7511730181   -0.7471610880    2.8544967336
C       -0.1515531230    0.1235722065   -0.2753343650
C        2.8812189127   -0.2003378713    4.9789834185
N       -0.2431622556   -2.1298447026    2.7424419745
N        2.9308543394   -0.4002882580    3.5264492390
O        0.4913551164    1.0127546539   -0.8064339974
O       -1.3016920746   -0.3587114350   -0.8180507502
H        1.9839929379    0.6612003537    1.2121460815
H       -1.4832312134   -1.8848992264    1.1011537193
H        1.1094730856   -2.2456195072    4.2898892561
H        2.0806810848    0.4871668974    5.2889433481
H        3.8425558240    0.2030237303    5.3058775678
H        2.7381288698   -1.1534717824    5.4942045235
H        3.3936718239    0.3761624700    3.0657098855
H       -1.4403004381    0.1454549137   -1.6424299016
19   
Generated by ForceBalance from scan.xyz: Frame 22 of 24
C        1.3601779549   -0.0906639642    1.6290350982
C       -0.6008040598   -1.4984761466    1.5907226782
C        0.8148359205   -1.6158940193    3.3970452585
C        0.2019836911   -0.5217016817    0.9801238114
C        1.7031861894   -0.6524918307    2.8674238186
C       -0.1389251977    0.0874978241   -0.3317214341
C        2.9275233713   -0.3111177795    4.9886822063
N       -0.2973437202   -2.0290595986    2.7797797458
N        2.8728043845   -0.2782379910    3.5281832991
O        0.5182732391    0.9485663146   -0.8910074148
O       -1.2822762636   -0.4127338872   -0.8728316136
H        1.9793128806    0.6700776683    1.1596296935
H       -1.5075386308   -1.8516849663    1.1088939225
H        1.0168647557   -2.0739599918    4.3625533599
H        2.0673426176    0.1869114231    5.4597652874
H        3.8443540416    0.1859715254    5.3129431126
H        2.9712782551   -1.3426234446    5.3506764649
H        3.2795191215    0.5639682181    3.1384988115
H       -1.4030080332    0.0549224818   -1.7211783926
19   
Generated by ForceBalance from scan.xyz: Frame 23 of 24
C        1.3221115598   -0.0482521528    1.6200527473
C       -0.6317765514   -1.4667171127    1.5923806056
C        0.7433908395   -1.5070579794    3.4344971892
C        0.1797935638   -0.5068771637    0.9645480738
C        1.6344148757   -0.5523372146    2.8926698055
C       -0.1307861908    0.0461526748   -0.3794515802
C        2.9665332519   -0.3972156870    4.9767566735
N       -0.3499466816   -1.9528746738    2.8045046363
N        2.7879980657   -0.1474926579    3.5530587033
O        0.5361326348    0.8865504215   -0.9583663339
O       -1.2588906302   -0.4812667697   -0.9270073896
H        1.9536551940    0.6903694155    1.1325188127
H       -1.5257964915   -1.8424991786    1.1039470913
H        0.9247500793   -1.9299544145    4.4195082042
H        2.1325176391   -0.0213398298    5.5883896896
H        3.8869189492    0.0914030869    5.3033560076
H        3.0779860775   -1.4695868713    5.1670040601
H        3.1539735134    0.7392536384    3.2308685037
H       -1.3604475812   -0.0492431531   -1.7964863388
19   
Generated by ForceBalance from scan.xyz: Frame 24 of 24
C        1.2436258370    0.0022446471    1.6364534401
C       -0.6640933167   -1.4777243753    1.5982434316
C        0.6732909951   -1.4395771855    3.4678384041
C        0.1366775554   -0.5127024182    0.9633215580
C        1.5464595198   -0.4683500618    2.9252673468
C       -0.1562132356   -0.0048087002   -0.4023220387
C        2.9612504303   -0.4034881331    4.9693563871
N       -0.3974682420   -1.9253350327    2.8280996862
N        2.6147357791    0.0546435420    3.6358123763
O        0.5120761478    0.8250798030   -0.9947001401
O       -1.2674041673   -0.5630799416   -0.9543054191
H        1.8542482944    0.7610418823    1.1536702344
H       -1.5337815237   -1.8929639580    1.0980197003
H        0.8489322075   -1.8400376377    4.4631956920
H        2.1228900786   -0.2430599392    5.6556736138
H        3.8055093646    0.1860419165    5.3332873330
H        3.2393324781   -1.4678665116    5.0062881897
H        3.3660924257    0.4367121195    3.0783168713
H       -1.3573905098   -0.1590953029   -1.8384014118
