19   
Generated by ForceBalance from scan.xyz: Frame 1 of 24
C        1.3486769966   -0.0409762071    1.6247925857
C        1.6334418991   -0.6054853923    2.8620264408
C       -0.6333481595   -1.4177901429    1.5234952224
C        0.1996207147   -0.4442327301    0.9234736408
C        0.7364495136   -1.5589404081    3.3421386203
C       -1.2364928591    0.0806561794   -1.0585676658
N       -0.3536060411   -1.9553618798    2.7108340894
N       -1.1531818463    0.7731459965   -2.2618960868
N       -0.0393649161    0.1150051960   -0.3368211023
N        1.0058866138   -2.1964114226    4.6611395507
O        2.0390745696   -1.8340953027    5.2438220764
O       -2.2601790609   -0.4573247331   -0.6648151988
O        0.2059781361   -3.0237870283    5.0852502671
H        2.0146850345    0.7098079600    1.2047801599
H        2.5064625506   -0.3247536812    3.4375582135
H       -1.5382890375   -1.7480681462    1.0298102085
H       -1.9657429831    0.6176996336   -2.8475521216
H       -0.2750720996    0.7455052667   -2.7677655176
H        0.6486333684    0.7911091638   -0.6458407373
19   
Generated by ForceBalance from scan.xyz: Frame 2 of 24
C        1.3540868895   -0.0394221572    1.6247266979
C        1.6181959340   -0.5734117733    2.8813883657
C       -0.5512459140   -1.5140852700    1.4692674389
C        0.2568187952   -0.5108846000    0.8875172120
C        0.7475756082   -1.5598808456    3.3411814555
C       -1.2291780348    0.1274811788   -1.0056131457
N       -0.2971933122   -2.0197138459    2.6753644399
N       -1.1659725413    0.7979645248   -2.2216040949
N        0.0281839617    0.0016355750   -0.3973944324
N        0.9936504064   -2.1633649381    4.6812737089
O        1.9924115671   -1.7527734716    5.2910223840
O       -2.2709768647   -0.2722880783   -0.5103497079
O        0.2090298416   -3.0107718829    5.0940857450
H        1.9955465863    0.7402634828    1.2197996267
H        2.4520533970   -0.2418786150    3.4872184851
H       -1.4187070796   -1.8964957805    0.9452588631
H       -2.0394725848    0.7465716536   -2.7332432537
H       -0.3449197753    0.6548278402   -2.7988668004
H        0.7398249802    0.6400076827   -0.7335442260
19   
Generated by ForceBalance from scan.xyz: Frame 3 of 24
C        1.3798764153   -0.1037278891    1.6014781372
C        1.6878264989   -0.5961464396    2.8651398272
C       -0.6503115527   -1.4018963064    1.6741560684
C        0.1834591623   -0.4989521772    0.9787997312
C        0.7603561324   -1.4551771065    3.4556961997
C       -1.3435412386    0.4668078019   -0.8035956137
N       -0.3674253291   -1.8548578693    2.8948928040
N       -2.4363593301    0.4012075072    0.0375877704
N       -0.1313804248   -0.0354500170   -0.3045008497
N        1.0427151898   -1.9893563796    4.8190150371
O        2.1186104019   -1.6466850033    5.3290866095
O       -1.3974369424    0.8971477942   -1.9481085882
O        0.2061937175   -2.7165258167    5.3434953319
H        2.0546225149    0.5859961209    1.1008027956
H        2.5955714488   -0.3204797779    3.3872633846
H       -1.5628113960   -1.7718383431    1.2141259443
H       -3.2246822288    0.9323811873   -0.3131267311
H       -2.2943269321    0.4594177340    1.0391807319
H        0.6422072228    0.2429042818   -0.8978091490
19   
Generated by ForceBalance from scan.xyz: Frame 4 of 24
C        1.3329964502   -0.0938022325    1.5826818389
C        1.6330334538   -0.5481043754    2.8640491034
C       -0.6200262502   -1.5054043013    1.6246147769
C        0.1843620018   -0.5750446495    0.9345412984
C        0.7388369644   -1.4486164600    3.4430265963
C       -1.3169233445    0.5054793850   -0.7789526398
N       -0.3513095293   -1.9194542411    2.8626939393
N       -2.3773108447    0.4894907094    0.1029504540
N       -0.1467901384   -0.1574119591   -0.3668001594
N        1.0133997153   -1.9441200753    4.8246827344
O        2.0613161647   -1.5445827936    5.3503552068
O       -1.3731128771    1.0079906850   -1.8934674381
O        0.1973862860   -2.6969140673    5.3444389180
H        1.9783912501    0.6279038860    1.0886074777
H        2.5067972603   -0.2113654860    3.4079297309
H       -1.5016425248   -1.9244006014    1.1450941326
H       -3.1267356460    1.1125756715   -0.1722671799
H       -2.2026717347    0.4349671477    1.0989377536
H        0.6274059410    0.0983637224   -0.9702060978
19   
Generated by ForceBalance from scan.xyz: Frame 5 of 24
C        1.2706566955   -0.0791169834    1.5625157766
C        1.5738855413   -0.5089927181    2.8527983030
C       -0.5813495817   -1.6214590405    1.5700280474
C        0.1771046356   -0.6477909768    0.8924759868
C        0.7313584181   -1.4684096166    3.4139823092
C       -1.2806598342    0.5611171024   -0.7466676939
N       -0.3139442249   -2.0132959661    2.8166685898
N       -2.2915418365    0.6246576232    0.1869676217
N       -0.1821210589   -0.2573711713   -0.4176426600
N        1.0105952519   -1.9409189090    4.8052710933
O        2.0238878829   -1.4786517951    5.3462750722
O       -1.3300394833    1.1174041417   -1.8357518596
O        0.2298271222   -2.7363563967    5.3145367080
H        1.8722746824    0.6857715553    1.0783329718
H        2.4087923305   -0.1108718474    3.4159364858
H       -1.4275745198   -2.0907843543    1.0727464185
H       -2.9863555397    1.3325675682   -0.0141450229
H       -2.0963137513    0.4602112243    1.1661439258
H        0.5873758388   -0.0566361315   -1.0482307964
19   
Generated by ForceBalance from scan.xyz: Frame 6 of 24
C        1.1611786210   -0.0509761073    1.5600124731
C        1.4790892869   -0.4438170298    2.8595323872
C       -0.5398884950   -1.7561092182    1.5426508636
C        0.1409181417   -0.7244677504    0.8736703380
C        0.7211144245   -1.4790083228    3.4061433828
C       -1.2473214504    0.5746145291   -0.7373208459
N       -0.2583301247   -2.1215129113    2.7957559699
N       -2.1995009802    0.7568153667    0.2408191709
N       -0.2465381138   -0.3724064563   -0.4476754286
N        1.0200175341   -1.9218078563    4.8062331583
O        1.9689467530   -1.3578677798    5.3661872725
O       -1.2837329238    1.1308565778   -1.8272998393
O        0.3164136665   -2.7951962170    5.2986299490
H        1.6958928233    0.7646113346    1.0802867568
H        2.2618586370    0.0322010608    3.4369453631
H       -1.3364700422   -2.2940992167    1.0330439245
H       -2.8199897153    1.5385560549    0.0760417559
H       -2.0021885197    0.5317765450    1.2068810032
H        0.5089157599   -0.2826323086   -1.1196911177
19   
Generated by ForceBalance from scan.xyz: Frame 7 of 24
C        1.7884483783   -0.4273382146    1.3997362111
C        1.9950369518   -0.8554716340    2.7082954580
C       -0.4907120711   -1.1725118355    1.6024461183
C        0.5167308522   -0.5697435077    0.8338526422
C        0.9087746490   -1.4365092606    3.3633294074
C        0.1933401563    1.1639542655   -0.8452768645
N       -0.2955364273   -1.6060009548    2.8488575801
N       -0.3676656443    1.3847707522   -2.0945458873
N        0.2782022345   -0.2076076890   -0.5184948584
N        1.0939339988   -1.9238679794    4.7649019898
O        2.2223367934   -1.7750192948    5.2527113768
O        0.5676979529    2.0537321904   -0.0988218627
O        0.1357425102   -2.4357235980    5.3332713942
H        2.5905465798    0.0214537511    0.8235221123
H        2.9538730838   -0.7655156081    3.2030949558
H       -1.4907037907   -1.3084372716    1.1908362243
H       -0.2493497582    2.3391898544   -2.4140770625
H       -0.2102052337    0.6847071263   -2.8106685693
H       -0.4433395798   -0.7700829718   -0.9597208842
19   
Generated by ForceBalance from scan.xyz: Frame 8 of 24
C        1.7178702691   -0.3469782738    1.4281353733
C        1.9473539607   -0.7960469408    2.7250728349
C       -0.5084010612   -1.2504301007    1.6094313182
C        0.4560215342   -0.5598806751    0.8561497109
C        0.9035369662   -1.4635655250    3.3672401683
C        0.3008870735    1.1520208743   -0.8867861540
N       -0.2863363729   -1.6993583400    2.8441932711
N       -0.3104615206    1.4000319417   -2.1063130693
N        0.1788180684   -0.1936768505   -0.4792890130
N        1.1188347136   -1.9682463555    4.7555945019
O        2.2355476284   -1.7591309882    5.2491507988
O        0.8723368807    2.0045783994   -0.2264933335
O        0.1947473015   -2.5516909331    5.3124032357
H        2.4893219837    0.1722551199    0.8715598796
H        2.8984447247   -0.6547334668    3.2228602618
H       -1.4969911913   -1.4447824297    1.1925729038
H       -0.0630477141    2.3036101255   -2.4927300635
H       -0.3336721816    0.6488602107   -2.7865863803
H       -0.6341504289   -0.6645756351   -0.8641994720
19   
Generated by ForceBalance from scan.xyz: Frame 9 of 24
C        1.6523303800   -0.2556396036    1.4703349583
C        1.9046340095   -0.7367873402    2.7517844780
C       -0.5214870316   -1.2869554054    1.6241307281
C        0.4030610449   -0.5215431508    0.8881014340
C        0.9006951904   -1.4778559499    3.3756759588
C        0.3755033801    1.1358884214   -0.9414385332
N       -0.2764297985   -1.7585337115    2.8437461007
N       -0.2650080421    1.3871904828   -2.1459849133
N        0.0788698683   -0.1382047232   -0.4246518370
N        1.1430078841   -2.0111283512    4.7463959239
O        2.2504002880   -1.7647607171    5.2445487105
O        1.0998883090    1.9430122433   -0.3800075177
O        0.2484033833   -2.6526302922    5.2883213006
H        2.3931374810    0.3269902478    0.9377552443
H        2.8476007106   -0.5586486187    3.2533918009
H       -1.4987063704   -1.5226238161    1.2009803304
H        0.0851912686    2.2179244468   -2.6087319803
H       -0.4355396008    0.6057127162   -2.7686056761
H       -0.7840803015   -0.5434295570   -0.7714586204
19   
Generated by ForceBalance from scan.xyz: Frame 10 of 24
C        1.6022905297   -0.1743387438    1.5227649582
C        1.8748760690   -0.7058201721    2.7805200274
C       -0.5239062489   -1.3095879246    1.6283973341
C        0.3667013938   -0.4726458942    0.9241708844
C        0.9069688430   -1.5176472133    3.3708707671
C        0.4386062080    1.1320995987   -0.9747821824
N       -0.2589714502   -1.8221672986    2.8251451269
N       -0.2257975716    1.3941157217   -2.1651169426
N       -0.0017541530   -0.0471348590   -0.3586873786
N        1.1742616915   -2.1031401081    4.7136317130
O        2.2679585079   -1.8273841266    5.2269706518
O        1.2932291903    1.8692991837   -0.5057997541
O        0.3112714419   -2.8122342718    5.2223837720
H        2.3136946357    0.4684941885    1.0221169063
H        2.8088945246   -0.5065326430    3.2909923297
H       -1.4904939349   -1.5688629901    1.1940991455
H        0.2072684442    2.1414508825   -2.6950333722
H       -0.5282574174    0.6083441917   -2.7294749155
H       -0.8983596624   -0.3973195168   -0.6768131919
19   
Generated by ForceBalance from scan.xyz: Frame 11 of 24
C        1.5608512345   -0.0883451900    1.5662743515
C        1.8572196285   -0.6544051072    2.8038632632
C       -0.5197665607   -1.3096524260    1.6388555756
C        0.3374274703   -0.4175750736    0.9576120133
C        0.9252113840   -1.5231689160    3.3688727111
C        0.4795174375    1.1065953470   -1.0174149570
N       -0.2319191758   -1.8511458619    2.8161252944
N       -0.2066497358    1.3695156006   -2.1964964720
N       -0.0740032656    0.0459153336   -0.2957709797
N        1.2219782113   -2.1461793594    4.6871568607
O        2.2888688471   -1.8159828388    5.2245476191
O        1.4398288991    1.7642347205   -0.6417118867
O        0.4092532678   -2.9390218689    5.1536502891
H        2.2436610125    0.5990350422    1.0862290599
H        2.7833224536   -0.4336917094    3.3200020669
H       -1.4783252611   -1.5894486263    1.1991304228
H        0.2892321088    2.0224731653   -2.7921764262
H       -0.6199086724    0.5903946560   -2.6962201892
H       -0.9922994916   -0.2669228903   -0.5881716311
19   
Generated by ForceBalance from scan.xyz: Frame 12 of 24
C        1.4989659529    0.0578266422    1.6405703472
C        1.7522259639   -0.4209944778    2.9238900420
C       -0.5205877059   -1.2646871821    1.6746750693
C        0.3279685320   -0.3669484718    0.9888742664
C        0.8315252265   -1.3006022875    3.4902400805
C        0.6114846561    0.9084436540   -1.1467089162
N       -0.2743479209   -1.7210605396    2.8961810590
N       -0.0735252917    1.1337496043   -2.3344706433
N       -0.0610467054    0.0356512683   -0.2910660987
N        1.0792592168   -1.8251357593    4.8601746411
O        2.1142613607   -1.4350258452    5.4193757524
O        1.7101453115    1.3916459944   -0.9086503294
O        0.2597608711   -2.5994353511    5.3456999045
H        2.1823852634    0.7357185244    1.1481495265
H        2.6382752284   -0.1270593559    3.4728626328
H       -1.4367467024   -1.6205274985    1.2007919169
H        0.3416172716    1.8796234269   -2.8806694788
H       -1.0866138404    1.1560605533   -2.3122839768
H       -0.8904202559   -0.4174320053   -0.6554428286
19   
Generated by ForceBalance from scan.xyz: Frame 13 of 24
C        1.4286411607    0.1196398076    1.6866129690
C        1.6957649900   -0.4028451778    2.9496893469
C       -0.5382706898   -1.2797063684    1.6549215639
C        0.2805420700   -0.3269883480    1.0096491363
C        0.8050916764   -1.3365695063    3.4765791910
C        0.6340564523    0.8685166408   -1.1562317686
N       -0.2828388781   -1.7717684123    2.8610672228
N       -0.0380100801    1.1089754581   -2.3481095296
N       -0.1299914199    0.1362404869   -0.2440924588
N        1.0653098094   -1.9036980171    4.8274509387
O        2.1009324452   -1.5251764072    5.3933646390
O        1.7851353440    1.2286206739   -0.9531249257
O        0.2525600475   -2.6968198314    5.2934087342
H        2.0904055430    0.8402287276    1.2262015253
H        2.5672484194   -0.0976936520    3.5155261155
H       -1.4378151107   -1.6510257682    1.1615271211
H        0.4502286177    1.7741479255   -2.9365868080
H       -1.0410829010    1.2513294952   -2.3139853549
H       -0.9708474392   -0.2974624252   -0.6067196554
19   
Generated by ForceBalance from scan.xyz: Frame 14 of 24
C        1.3684152723    0.1907379284    1.7344508662
C        1.6574188084   -0.3678085221    2.9767156070
C       -0.5453214706   -1.2760210104    1.6465272292
C        0.2409111419   -0.2755561431    1.0378332303
C        0.8003970086   -1.3530136498    3.4658930965
C        0.6493716444    0.8066520977   -1.1640475541
N       -0.2723046786   -1.8023141651    2.8354746884
N       -0.0163213533    1.0716573140   -2.3530022737
N       -0.1873672350    0.2444903311   -0.1904385571
N        1.0832851795   -1.9640954593    4.7939680895
O        2.0823976873   -1.5413621800    5.3929686559
O        1.8423378431    1.0161751482   -1.0005624370
O        0.3224975509   -2.8328780222    5.2096875405
H        2.0038310480    0.9524798590    1.3031973292
H        2.5151152560   -0.0501403145    3.5564838650
H       -1.4318901857   -1.6595086766    1.1395063516
H        0.5360470139    1.6335450939   -2.9902138433
H       -0.9933403827    1.3377238053   -2.3075402331
H       -1.0542528730   -0.1516910266   -0.5358116572
19   
Generated by ForceBalance from scan.xyz: Frame 15 of 24
C        1.3127957321    0.2808225761    1.7816449348
C        1.6313798127   -0.3084774720    3.0016881470
C       -0.5294579559   -1.2678537561    1.6327587422
C        0.2124014770   -0.2146053034    1.0648066150
C        0.8178767197   -1.3489758123    3.4510054531
C        0.6489071857    0.7276947458   -1.1753376354
N       -0.2340328463   -1.8224716124    2.8053965165
N       -0.0133519242    1.0156674134   -2.3599038477
N       -0.2290965563    0.3571511936   -0.1409220100
N        1.1291195226   -1.9959851417    4.7573411194
O        2.1143404727   -1.5581072559    5.3679064786
O        1.8631068603    0.7696545078   -1.0517015360
O        0.4038669709   -2.9075480455    5.1428247141
H        1.9084849469    1.0914880316    1.3817844741
H        2.4717805281    0.0273571491    3.5962223747
H       -1.3964825134   -1.6730075955    1.1096041151
H        0.5883200388    1.4561777643   -3.0461218061
H       -0.9412476220    1.4195890801   -2.3016601929
H       -1.1299053345    0.0112546105   -0.4541419081
19   
Generated by ForceBalance from scan.xyz: Frame 16 of 24
C        1.2651057452    0.3662068567    1.8370562756
C        1.6119782630   -0.2576529792    3.0315998504
C       -0.4950894285   -1.2623540090    1.6056414531
C        0.1982070078   -0.1535985138    1.0911971165
C        0.8457267919   -1.3544383689    3.4283031512
C        0.6261959619    0.6384546858   -1.1851733054
N       -0.1791851267   -1.8505878025    2.7586736376
N       -0.0355402100    0.9577782648   -2.3612105445
N       -0.2506283292    0.4726463282   -0.0921789609
N        1.1827607081   -2.0411630143    4.7101568299
O        2.1394603937   -1.5779111337    5.3461636487
O        1.8357206382    0.4981455104   -1.1023201736
O        0.5023320254   -3.0028848119    5.0515134448
H        1.8153098738    1.2272540213    1.4759048002
H        2.4306749372    0.0930572413    3.6473060901
H       -1.3375555588   -1.6867710924    1.0588655448
H        0.5935586106    1.2641053150   -3.0942804480
H       -0.8894611067    1.4997406892   -2.2927927898
H       -1.1905414462    0.1995542342   -0.3619369064
19   
Generated by ForceBalance from scan.xyz: Frame 17 of 24
C        1.2294063959    0.4458815345    1.9050676541
C        1.5802209648   -0.2098294863    3.0820361072
C       -0.4378386579   -1.2534636131    1.5526724335
C        0.2114364381   -0.0911047369    1.1093436118
C        0.8571020390   -1.3578001140    3.4075276675
C        0.5994186215    0.5367943230   -1.2110274066
N       -0.1233655153   -1.8752872977    2.6901773636
N       -0.0665632910    0.9207630692   -2.3657004896
N       -0.2239520668    0.5796195275   -0.0642197248
N        1.1927790923   -2.0819816219    4.6720383426
O        2.1068986512   -1.5995669298    5.3539994213
O        1.7680639035    0.1867411445   -1.1822746431
O        0.5520857073   -3.0889920330    4.9524285070
H        1.7386398366    1.3521328558    1.5948305046
H        2.3638628907    0.1521804306    3.7355936845
H       -1.2417330079   -1.6942170997    0.9632807690
H        0.5609638845    1.0808150818   -3.1451832960
H       -0.8019781683    1.6127131205   -2.2758909505
H       -1.2062614057    0.4239500953   -0.2705028679
19   
Generated by ForceBalance from scan.xyz: Frame 18 of 24
C        1.2425117289   -0.1755572426    1.4885300056
C        1.6749346835   -0.7480168995    2.6840686290
C       -0.9178101240   -1.1655511629    1.8845294269
C       -0.0838307598   -0.3714892127    1.0787276743
C        0.7456693486   -1.5169576428    3.3841499823
C       -0.5493888785   -0.5074010860   -1.3660129198
N       -0.5040890306   -1.7376151859    3.0179589003
N       -0.5032157193   -1.8817691656   -1.2919156354
N       -0.5915945384    0.1704850652   -0.1329991984
N        1.1737851147   -2.1626091093    4.6669635616
O        2.3283468642   -1.9206367294    5.0417266389
O       -0.6257514744    0.1096715099   -2.4206955163
O        0.3690266293   -2.8790237700    5.2495297742
H        1.9202880864    0.4171640935    0.8798242008
H        2.6842310652   -0.6257870457    3.0570449296
H       -1.9510892306   -1.3340204818    1.5885040189
H       -0.3284500778   -2.3400830152   -2.1765515686
H       -0.1544833190   -2.3469388313   -0.4644010784
H       -0.4144028427    1.1585831137   -0.2829970808
19   
Generated by ForceBalance from scan.xyz: Frame 19 of 24
C        1.2799517531   -0.0923580238    1.5558972329
C        1.6738584275   -0.6636923223    2.7642423630
C       -0.8282396723   -1.2344710643    1.7939242014
C       -0.0004099005   -0.3688220018    1.0539122523
C        0.7625023579   -1.5165873829    3.3865051904
C       -0.5799425160   -0.5247046870   -1.3779121844
N       -0.4445104527   -1.8090660615    2.9348975163
N       -0.6757888693   -1.8953387032   -1.2776169924
N       -0.4612417012    0.1811647937   -0.1641912351
N        1.1548532466   -2.1665584314    4.6752192414
O        2.2585077242   -1.8455135295    5.1356226258
O       -0.6591890631    0.0823200230   -2.4376755468
O        0.3747502871   -2.9636885710    5.1828052324
H        1.9538307273    0.5604871860    1.0072090747
H        2.6470127926   -0.4811683586    3.2028304467
H       -1.8318494068   -1.4582266900    1.4384895203
H       -0.6076231986   -2.3715674591   -2.1680913090
H       -0.2777428083   -2.3803754304   -0.4837377140
H       -0.1734690255    1.1351707833   -0.3565356549
19   
Generated by ForceBalance from scan.xyz: Frame 20 of 24
C        1.3111406834   -0.0577903459    1.6042416529
C        1.6813446627   -0.6225853132    2.8217015500
C       -0.7407952845   -1.3153109104    1.7341205169
C        0.0745180437   -0.4012330665    1.0351441751
C        0.7932773183   -1.5333039468    3.3941140148
C       -0.6549666169   -0.5209777199   -1.3756844074
N       -0.3760405847   -1.8801862226    2.8849363758
N       -0.8538385038   -1.8820183815   -1.2745628367
N       -0.3475109963    0.1594187729   -0.1834981997
N        1.1624050310   -2.1775915178    4.6896664879
O        2.2333838660   -1.8145565110    5.1949384461
O       -0.7882761088    0.1054052849   -2.4186159882
O        0.3993370835   -3.0134112167    5.1606882480
H        1.9723499326    0.6398080983    1.0966380668
H        2.6221672181   -0.3908699128    3.3052597883
H       -1.7190332202   -1.5832363741    1.3416560032
H       -0.9096389114   -2.3392050523   -2.1764781559
H       -0.3796013268   -2.4076921768   -0.5505468500
H       -0.0054020452    1.0907168249   -0.3946914333
19   
Generated by ForceBalance from scan.xyz: Frame 21 of 24
C        1.3368322532   -0.0346607919    1.6421338906
C        1.6756095906   -0.5763607867    2.8774333497
C       -0.6599772775   -1.3848293215    1.6833113120
C        0.1486378129   -0.4420192885    1.0115866226
C        0.8051097796   -1.5247441860    3.4156347279
C       -0.7086124010   -0.5185892954   -1.3760823009
N       -0.3237239980   -1.9221772483    2.8553238478
N       -0.9775788352   -1.8694001559   -1.2805628943
N       -0.2235024675    0.1119352762   -0.2194747002
N        1.1420360134   -2.1453700573    4.7290522218
O        2.1799744283   -1.7440026645    5.2737816492
O       -0.9079258596    0.1395608398   -2.3885712126
O        0.3882901326   -3.0021080807    5.1779270619
H        1.9874960896    0.6931105470    1.1639534453
H        2.5804979108   -0.2967504017    3.4024087743
H       -1.6102270470   -1.6954503149    1.2570566403
H       -1.1540035683   -2.2917681549   -2.1844819633
H       -0.4338430276   -2.4385525412   -0.6424676837
H        0.1377436618    1.0333653995   -0.4394786939
19   
Generated by ForceBalance from scan.xyz: Frame 22 of 24
C        1.3764119676   -0.0764971074    1.6037733101
C        1.6592908514   -0.6401024530    2.8433930867
C       -0.7780170919   -1.1623366667    1.6752583811
C        0.1367736328   -0.3264350935    0.9952376992
C        0.6718218410   -1.4435834575    3.4106384239
C       -0.9866751126   -0.2551985028   -1.2253541701
N       -0.5015489863   -1.7031730076    2.8609459777
N       -0.9789906424    0.5017275730   -2.3910750189
N       -0.1558523263    0.2843481121   -0.2325523573
N        0.9302844452   -2.0653667765    4.7401103860
O        2.0224708634   -1.8031328284    5.2657261888
O       -1.6192446834   -1.2916856921   -1.0989070878
O        0.0643349266   -2.7846633669    5.2267499215
H        2.1151403925    0.5519501639    1.1111361354
H        2.6015173821   -0.4767210069    3.3510569144
H       -1.7402557156   -1.3976505500    1.2370675824
H       -1.6963535618    0.2074674465   -3.0439081159
H       -0.8951744455    1.5081060885   -2.3015232525
H        0.5466682102    0.9368379795   -0.5607878220
19   
Generated by ForceBalance from scan.xyz: Frame 23 of 24
C        1.3761577086   -0.0740451605    1.6141980282
C        1.6451409389   -0.6025581175    2.8706983818
C       -0.7234589591   -1.2681346538    1.6310982800
C        0.1720096824   -0.3976722133    0.9660157833
C        0.6790640357   -1.4436146896    3.4216346055
C       -1.0538724370   -0.2190596297   -1.2091930357
N       -0.4589006592   -1.7709377050    2.8369944372
N       -1.0139535414    0.5348109517   -2.3770884580
N       -0.0853457354    0.1799662184   -0.2824317399
N        0.9215601950   -2.0273002491    4.7704025042
O        1.9815693548   -1.7040587176    5.3273645406
O       -1.8247092003   -1.1513971493   -1.0392444819
O        0.0755579876   -2.7799445951    5.2415951461
H        2.0973725498    0.5868054813    1.1379545612
H        2.5595150161   -0.3810092710    3.4064470140
H       -1.6559229150   -1.5598614195    1.1652073566
H       -1.8083102962    0.3484310287   -2.9784197051
H       -0.7810819899    1.5185700398   -2.3017665680
H        0.6483583657    0.7810331945   -0.6380496167
19   
Generated by ForceBalance from scan.xyz: Frame 24 of 24
C        1.3511651340   -0.0459987478    1.6201108457
C        1.6579724228   -0.6326834973    2.8409927345
C       -0.6917253469   -1.3363093523    1.5833667951
C        0.1574868588   -0.3903140547    0.9615871750
C        0.7404002697   -1.5530589285    3.3470115202
C       -1.2219602246    0.0205127368   -1.0933581695
N       -0.3874550913   -1.8979289082    2.7540317711
N       -1.1410615816    0.7406176027   -2.2809944605
N       -0.1092065327    0.2118317545   -0.2720368779
N        1.0297898246   -2.2101067192    4.6519669765
O        2.0969204262   -1.8956634803    5.2002956171
O       -2.1905847341   -0.6606238154   -0.7907419308
O        0.2126897568   -3.0084820017    5.0982017895
H        2.0348525680    0.6759022666    1.1783250988
H        2.5650637280   -0.3970165365    3.3830736680
H       -1.6242573337   -1.6276003671    1.1177092493
H       -1.8776829296    0.4866536116   -2.9292704809
H       -0.2322921239    0.8441015994   -2.7180508413
H        0.5449001875    0.9312591733   -0.5548204941
