29   
Generated by ForceBalance from scan.xyz: Frame 1 of 24
C        0.6582526156    1.9251543082   -5.8522102797
C        1.7272487725    1.9086182572   -4.9615075545
C       -0.4432028934    0.3590222947   -4.4129242898
C       -0.4663911491    1.1326120008   -5.5777335466
C        1.6534387835    1.1003927946   -3.8081762421
C        2.2595222729    2.7770008257   -0.4483405406
C       -2.8094573149    1.1993115231   -8.4000410201
C        1.6992105779    1.3641205564   -0.6436437743
C        2.5517899527    0.4904791168   -1.5779299141
C       -1.5177845030    1.5650779088   -7.6887113852
N        0.5739393416    0.3450763217   -3.5456105106
N        2.7290688515    1.0219379439   -2.9291373717
O       -1.5973088786    1.0556474978   -6.3549058127
H        0.7110868432    2.5477937350   -6.7390813772
H        2.6137315387    2.5070208905   -5.1583388503
H       -1.3027845288   -0.2673370453   -4.1784579681
H        3.2852209137    2.7513438429   -0.0591110236
H        2.2708195721    3.3361338901   -1.3909550427
H        1.6510439295    3.3499035043    0.2590622675
H       -2.9346764632    0.1133471839   -8.4377684720
H       -3.6700819741    1.6288970942   -7.8790616650
H       -2.7954499733    1.5851502062   -9.4246428198
H        0.6813754068    1.4148680380   -1.0430775226
H        1.6326692795    0.8545019066    0.3263369682
H        3.5547099525    0.3585762461   -1.1550760778
H        2.0997137135   -0.4994403324   -1.6669891703
H       -1.3866884738    2.6562916732   -7.6668367267
H       -0.6484121195    1.1279672979   -8.1995764850
H        3.3682755825    1.8035694894   -2.9960089612
29   
Generated by ForceBalance from scan.xyz: Frame 2 of 24
C        0.6246501354    2.0662906190   -5.8127723901
C        1.7031275831    2.0096703734   -4.9378205601
C       -0.4776250582    0.4663887360   -4.4122535738
C       -0.5065263458    1.2786664880   -5.5481591670
C        1.6327079888    1.1675429375   -3.8065208018
C        2.3009856192    2.7291754383   -0.4021393932
C       -2.7908419741    1.1056433681   -8.4050253223
C        1.7243435961    1.3285833046   -0.6346567190
C        2.5547716693    0.4779934765   -1.6091564955
C       -1.4937389330    1.5026892687   -7.7206219489
N        0.5487684872    0.4165737119   -3.5545808704
N        2.7177616143    1.0525784723   -2.9444912519
O       -1.6475882238    1.2560898762   -6.3171492243
H        0.6692759175    2.7146881861   -6.6822432588
H        2.5949509412    2.6028744513   -5.1260911955
H       -1.3404888928   -0.1591305778   -4.1880310499
H        3.3320712872    2.6815784596   -0.0295674685
H        2.3034278293    3.3187232895   -1.3260873830
H        1.7085661256    3.2840830614    0.3326821550
H       -3.0011522759    0.0441692929   -8.2454702017
H       -3.6282262271    1.6874661505   -8.0086903287
H       -2.7189881196    1.2903946378   -9.4819718398
H        0.7013566434    1.4015292375   -1.0170715899
H        1.6671259361    0.7882796914    0.3191595553
H        3.5623012030    0.3226985218   -1.2057178033
H        2.0915239004   -0.5039879525   -1.7244693391
H       -1.2808721400    2.5665847362   -7.8952536716
H       -0.6464544344    0.9182838327   -8.1042115451
H        3.3655842200    1.8281786858   -2.9965667614
29   
Generated by ForceBalance from scan.xyz: Frame 3 of 24
C        1.1191791655    1.6948570810   -6.0177094445
C        2.1023326898    1.8094428037   -5.0398854575
C        0.0145483034    0.1103963607   -4.6062395537
C        0.0442953376    0.8211417260   -5.8090583984
C        1.9834381699    1.0499441551   -3.8560731531
C        2.1860844435    3.3336713597   -0.9399018932
C        0.0580470180   -0.8223996485   -8.3247796679
C        3.0386891871    3.5089723166   -2.2007560558
C        3.7906150853    2.2283131438   -2.6040060486
C       -0.6916529660    0.4803906007   -8.0693620487
N        0.9409157116    0.2256339448   -3.6486780609
N        2.9466015356    1.0634036080   -2.8545369722
O       -1.0148157295    0.6685617455   -6.6811247797
H        1.1922259965    2.2845452434   -6.9271107238
H        2.9457388078    2.4741845210   -5.1935067048
H       -0.8140555697   -0.5694925561   -4.4139739865
H        1.3961712410    2.5916285563   -1.0954954043
H        2.7964148588    3.0051394499   -0.0896238721
H        1.7019989649    4.2741513999   -0.6579107990
H        1.0318975207   -0.8254309384   -7.8262429687
H       -0.5201747361   -1.6752993659   -7.9564540870
H        0.2244528958   -0.9529973464   -9.3998784369
H        3.7802090524    4.3033807666   -2.0461466921
H        2.4012395195    3.8342141371   -3.0308993365
H        4.4060461424    2.4185473169   -3.4904210537
H        4.4877892937    1.9455304326   -1.8078076997
H       -1.6610442635    0.4774753011   -8.5740571511
H       -0.1250221515    1.3390442025   -8.4513704852
H        2.6069153738    0.5884477927   -2.0256903815
29   
Generated by ForceBalance from scan.xyz: Frame 4 of 24
C        1.1249129200    1.8841317980   -6.0435382511
C        2.1067763320    1.9747160523   -5.0632445845
C        0.1004038744    0.1498811142   -4.7515601781
C        0.0953075135    0.9454461600   -5.8987994514
C        2.0287100613    1.1214002219   -3.9397007354
C        2.1810683536    3.2165230550   -0.8697383042
C       -0.1065597692   -1.0100098551   -8.2006720454
C        3.0142918202    3.5036569876   -2.1229771335
C        3.8022492586    2.2782334583   -2.6183305790
C       -0.5821128031    0.4368125202   -8.1320859912
N        1.0269883245    0.2361237199   -3.7900813256
N        2.9926367172    1.1073491120   -2.9413044633
O       -0.9493038762    0.8316240344   -6.7968208004
H        1.1517014208    2.5436367110   -6.9071931735
H        2.9139931726    2.6922566694   -5.1642123234
H       -0.6967844272   -0.5776672083   -4.6061159485
H        1.4129809929    2.4619865626   -1.0685106423
H        2.8103808399    2.8508997323   -0.0489646314
H        1.6711131630    4.1200323928   -0.5205430327
H        0.8055730740   -1.1538806934   -7.6136030922
H       -0.8759291141   -1.6855868948   -7.8144135397
H        0.1089400391   -1.2855083073   -9.2391579997
H        3.7321418735    4.3091033767   -1.9211216778
H        2.3582393797    3.8636846816   -2.9237100107
H        4.4030676961    2.5475923461   -3.4941675158
H        4.5152058588    1.9642867039   -1.8482544917
H       -1.4915484683    0.5785609883   -8.7218090370
H        0.1839466190    1.1160119088   -8.5283601136
H        2.6817962160    0.5587238518   -2.1475132717
29   
Generated by ForceBalance from scan.xyz: Frame 5 of 24
C        1.1388488545    2.0472955195   -6.0750136250
C        2.1123390247    2.1174407567   -5.0851283183
C        0.1695460830    0.2072987767   -4.8888624217
C        0.1407561183    1.0690291617   -5.9867177914
C        2.0613989174    1.1955448518   -4.0147764893
C        2.1748215620    3.1091489564   -0.8110608089
C       -0.2523160228   -1.1288342750   -8.0482760228
C        2.9845525120    3.4953198040   -2.0530610564
C        3.8027096109    2.3256560309   -2.6275773597
C       -0.5021236196    0.3699773222   -8.1710187708
N        1.0911907928    0.2678168342   -3.9205881851
N        3.0232018802    1.1545523830   -3.0164542967
O       -0.8764543011    0.9803746837   -6.9198613904
H        1.1399385622    2.7491423079   -6.9054432381
H        2.8938556224    2.8677464208   -5.1388593422
H       -0.6029302877   -0.5536435833   -4.7868196121
H        1.4278723564    2.3440701416   -1.0467666906
H        2.8244317381    2.7155353932   -0.0195707700
H        1.6415370372    3.9740980818   -0.4039569839
H        0.5944112788   -1.3383052809   -7.3879486153
H       -1.1367546206   -1.6353425494   -7.6497299742
H       -0.0260172835   -1.5499944963   -9.0344223341
H        3.6804456992    4.3086887083   -1.8102938050
H        2.3092439714    3.8819453998   -2.8248679758
H        4.3885509581    2.6645089770   -3.4891965170
H        4.5303629803    1.9857829902   -1.8826660994
H       -1.3440399350    0.5705854336   -8.8390084813
H        0.3828500661    0.8779180629   -8.5779193071
H        2.7324138164    0.5489232556   -2.2573367190
29   
Generated by ForceBalance from scan.xyz: Frame 6 of 24
C        0.9778466993    1.1891303587   -5.8796460116
C        1.9976889012    1.4034064876   -4.9649034368
C       -0.2724660828    0.1436919553   -4.1245363294
C       -0.1935253736    0.5437247372   -5.4562013862
C        1.8268903039    0.9550241261   -3.6320648083
C        4.5126187600   -1.2949123912   -2.1061100293
C       -2.4217926642   -1.0095281135   -7.9205101891
C        3.1430327789   -1.0022557716   -1.4843447447
C        2.8155962973    0.4970114629   -1.4009051208
C       -1.2055342953   -0.9223412073   -7.0154020382
N        0.7074749932    0.3338506836   -3.2282807594
N        2.8094781222    1.1960616990   -2.6849531536
O       -1.2515180462    0.3398732523   -6.3246417462
H        1.0669226509    1.5250288409   -6.9097340963
H        2.9099437356    1.9181085545   -5.2575823612
H       -1.1752711654   -0.3495397445   -3.7651878976
H        4.5591431817   -0.9557994868   -3.1472753444
H        5.3187180688   -0.7966845303   -1.5528992441
H        4.7258663435   -2.3688535008   -2.1062414028
H       -3.3429655123   -0.9442709478   -7.3338864484
H       -2.4189273613   -0.1937607304   -8.6496385230
H       -2.4205265077   -1.9611260725   -8.4624304909
H        3.1020839778   -1.4124279129   -0.4670293101
H        2.3546251325   -1.5007230163   -2.0570650530
H        1.8330717686    0.6327808765   -0.9442435365
H        3.5493320219    1.0063480032   -0.7653463561
H       -0.2744901214   -0.9865797232   -7.5964270016
H       -1.1987086794   -1.7395399614   -6.2808340346
H        3.7209012279    1.4038829480   -3.0710599284
29   
Generated by ForceBalance from scan.xyz: Frame 7 of 24
C        1.0336844086    1.2540857983   -5.8964992989
C        2.0220637463    1.4669268944   -4.9470430198
C       -0.2364843117    0.1251287013   -4.2093488501
C       -0.1321479590    0.5682813599   -5.5265357194
C        1.8290547119    0.9701743048   -3.6353130819
C        4.5429267589   -1.2554222401   -2.1259118803
C       -2.4255547634   -1.0167647466   -7.9136018416
C        3.1497701970   -1.0279901942   -1.5297176243
C        2.7744991044    0.4565646603   -1.3975528851
C       -1.2655755856   -0.9710670952   -6.9345093061
N        0.7160249907    0.3071363523   -3.2829089023
N        2.7794191805    1.2045133436   -2.6536988911
O       -1.1503302015    0.3774688334   -6.4437670402
H        1.1410112992    1.6192596009   -6.9145769178
H        2.9286784429    2.0120433671   -5.1993922802
H       -1.1348868533   -0.3988042658   -3.8838585281
H        4.6052960099   -0.8747551508   -3.1517628182
H        5.3191915447   -0.7554984780   -1.5329888801
H        4.7889365000   -2.3217480005   -2.1614972661
H       -3.3570683598   -0.7244255168   -7.4198034673
H       -2.2504740764   -0.3347649057   -8.7510175542
H       -2.5442688393   -2.0308991184   -8.3093450248
H        3.0957305465   -1.4789305126   -0.5304139142
H        2.3918138505   -1.5268776160   -2.1419103986
H        1.7771795065    0.5452589166   -0.9619447188
H        3.4760673075    0.9621276923   -0.7237992464
H       -0.3233114199   -1.2596409767   -7.4215186199
H       -1.4332010471   -1.6585382929   -6.0947564198
H        3.6941245754    1.4504071579   -3.0085093443
29   
Generated by ForceBalance from scan.xyz: Frame 8 of 24
C        1.0465802033    1.2742156649   -5.8975549859
C        2.0093476812    1.5012914477   -4.9262758283
C       -0.2102460438    0.0584677295   -4.2625414099
C       -0.0995289119    0.5351097621   -5.5679816506
C        1.8139488517    0.9648045024   -3.6307747806
C        4.5848880131   -1.1947620032   -2.1313375797
C       -2.4135532460   -0.9991826397   -7.9727850819
C        3.1736680472   -1.0362372219   -1.5556084081
C        2.7402081173    0.4291525138   -1.3907259726
C       -1.4090239237   -1.0089990000   -6.8334411665
N        0.7221255654    0.2515384501   -3.3167938413
N        2.7378548407    1.2116734153   -2.6257143285
O       -1.0824458519    0.3575177969   -6.5234738443
H        1.1569440620    1.6654382689   -6.9053789272
H        2.8991584733    2.0849622696   -5.1506705252
H       -1.0892486656   -0.5072483020   -3.9567564011
H        4.6510430440   -0.7842704506   -3.1453911673
H        5.3308434877   -0.6823392656   -1.5108132363
H        4.8719952223   -2.2497123420   -2.1906863731
H       -3.3205075791   -0.4613633485   -7.6808391788
H       -1.9911163958   -0.5096574544   -8.8552932261
H       -2.6883551744   -2.0248240606   -8.2405029177
H        3.1192572320   -1.5161593475   -0.5698915291
H        2.4463071063   -1.5463241722   -2.1950553378
H        1.7331274315    0.4685497203   -0.9705902538
H        3.4107082541    0.9416512042   -0.6910193454
H       -0.4914981371   -1.5431963340   -7.1157451207
H       -1.8317795237   -1.5070500894   -5.9515881540
H        3.6499821012    1.4938806360   -2.9598351729
29   
Generated by ForceBalance from scan.xyz: Frame 9 of 24
C        1.0842884303    1.3028266777   -5.8839243865
C        2.0321165800    1.5303813710   -4.8999184797
C       -0.1482232662    0.0039786967   -4.2942302485
C       -0.0407404165    0.5168034553   -5.5864099379
C        1.8441386271    0.9530610752   -3.6203955611
C        4.6703115375   -1.1631435187   -2.1751533983
C       -2.3082016937   -0.9907091771   -8.0362033734
C        3.2526913504   -1.0657916780   -1.6014839846
C        2.7742505553    0.3799376293   -1.3923465242
C       -1.5624135237   -0.9524215225   -6.7129421766
N        0.7741591799    0.1988370565   -3.3368151685
N        2.7539927019    1.2024292276   -2.6010856319
O       -1.0004515797    0.3618072421   -6.5643153971
H        1.1894179346    1.7249525200   -6.8796808803
H        2.9059510158    2.1452975124   -5.1025622609
H       -1.0050405126   -0.6030755732   -4.0078375394
H        4.7277837951   -0.7194223123   -3.1756627852
H        5.3978815246   -0.6478397034   -1.5354646400
H        4.9898206248   -2.2064738080   -2.2660673404
H       -3.0968382938   -0.2325861770   -8.0541740603
H       -1.6261273659   -0.7996366871   -8.8698892560
H       -2.7692610247   -1.9736752458   -8.1791292339
H        3.2092642018   -1.5782295712   -0.6316960742
H        2.5437937442   -1.5772069472   -2.2602817636
H        1.7643852131    0.3752562967   -0.9770466683
H        3.4253320129    0.8893231555   -0.6722495695
H       -0.7555985877   -1.6966099481   -6.6865575013
H       -2.2488088728   -1.1659182371   -5.8829365824
H        3.6613482410    1.5118699287   -2.9243928236
29   
Generated by ForceBalance from scan.xyz: Frame 10 of 24
C        1.1159845186    1.3108421112   -5.8876591379
C        2.0341481223    1.5462074675   -4.8795420484
C       -0.1014016323   -0.0732871727   -4.3582130819
C        0.0136346370    0.4761977303   -5.6347866590
C        1.8409296660    0.9320996757   -3.6173593499
C        4.7088981983   -1.1188479271   -2.1719203332
C       -2.3300093954   -1.0139619871   -8.0220539636
C        3.2793711265   -1.0845393660   -1.6210679258
C        2.7475541577    0.3383868365   -1.3856141598
C       -1.6564991411   -0.9036366948   -6.6645427221
N        0.7947842028    0.1339761809   -3.3764519228
N        2.7212392545    1.1907241816   -2.5732765762
O       -0.9024564978    0.3161089558   -6.6487963725
H        1.2266281955    1.7608139669   -6.8705188050
H        2.8895458303    2.1957794689   -5.0500515615
H       -0.9361215638   -0.7216412149   -4.1015131293
H        4.7671817001   -0.6502684829   -3.1609723343
H        5.4070714663   -0.5933627093   -1.5081631285
H        5.0666354925   -2.1479463502   -2.2809099139
H       -2.9886432724   -0.1577196279   -8.1951052462
H       -1.5843354377   -1.0440292262   -8.8219090473
H       -2.9308740936   -1.9281873073   -8.0693214450
H        3.2375266193   -1.6220569787   -0.6648575118
H        2.5999677931   -1.6034743516   -2.3045637606
H        1.7308323962    0.2885736645   -0.9903480561
H        3.3670236714    0.8509262629   -0.6402596027
H       -0.9825353451   -1.7515377163   -6.4830008792
H       -2.4089002562   -0.8901619593   -5.8642740178
H        3.6244190738    1.5349231067   -2.8723861759
29   
Generated by ForceBalance from scan.xyz: Frame 11 of 24
C        1.1519366717    1.2974080323   -5.9143741572
C        2.0338592551    1.5531707701   -4.8807608647
C       -0.0461458907   -0.1613656416   -4.4390984902
C        0.0764183924    0.4155955335   -5.7027172216
C        1.8329972922    0.9137929932   -3.6316443560
C        4.7427952396   -1.0428196282   -2.1364035393
C       -2.4056342869   -0.9898070520   -8.0103267134
C        3.2982524582   -1.0716224677   -1.6257888249
C        2.7052467635    0.3260994894   -1.3853069038
C       -1.7035591957   -0.8685418667   -6.6685504970
N        0.8156585526    0.0711533934   -3.4305348335
N        2.6754440017    1.1943468109   -2.5613295958
O       -0.7851128316    0.2255456199   -6.7562103393
H        1.2698915426    1.7654894944   -6.8878771970
H        2.8665756643    2.2385327476   -5.0206427456
H       -0.8553630787   -0.8498679989   -4.2100190792
H        4.8103865627   -0.5574632252   -3.1167436995
H        5.4014596871   -0.5011394457   -1.4458152351
H        5.1429415247   -2.0557129581   -2.2497632065
H       -2.9447893796   -0.0679880736   -8.2476915438
H       -1.6826066176   -1.1831233054   -8.8081622089
H       -3.1246347287   -1.8151165072   -7.9834330439
H        3.2509658048   -1.6247855688   -0.6787753538
H        2.6586857546   -1.6058567699   -2.3353927501
H        1.6814036131    0.2308456450   -1.0176141921
H        3.2846759725    0.8512993856   -0.6168756680
H       -1.1561956311   -1.7889898269   -6.4228074823
H       -2.4315625840   -0.6818126393   -5.8669516375
H        3.5729472547    1.5738048366   -2.8339031598
29   
Generated by ForceBalance from scan.xyz: Frame 12 of 24
C        1.1986726636    1.2543399831   -5.9328796832
C        2.0453390516    1.5352366705   -4.8771078077
C        0.0265166732   -0.2664545421   -4.4994180905
C        0.1525397683    0.3303038060   -5.7535565048
C        1.8394619513    0.8789795814   -3.6373242985
C        4.7882569679   -0.9721584117   -2.0853486905
C       -2.4649098210   -0.9236551115   -8.0037032007
C        3.3337981875   -1.0626849909   -1.6114456358
C        2.6798238410    0.3082713470   -1.3748423386
C       -1.7231620073   -0.8405329938   -6.6806279143
N        0.8526658476   -0.0050020721   -3.4677015007
N        2.6437178826    1.1848585932   -2.5445512982
O       -0.6548260728    0.0968633204   -6.8399843819
H        1.3216476092    1.7343157885   -6.8999635309
H        2.8532345142    2.2541006164   -4.9920790094
H       -0.7569916620   -0.9907249519   -4.2940505294
H        4.8607537036   -0.4757992547   -3.0598148325
H        5.4075652679   -0.4110606719   -1.3741534825
H        5.2310231898   -1.9673842415   -2.1967285108
H       -2.8734973048    0.0530370347   -8.2790191503
H       -1.7943720280   -1.2559078499   -8.8016400548
H       -3.2918575870   -1.6368730298   -7.9247913898
H        3.2851589735   -1.6257618104   -0.6703543432
H        2.7338167016   -1.6154501986   -2.3411266792
H        1.6519420434    0.1691522641   -1.0332424558
H        3.2190436997    0.8493707736   -0.5883796664
H       -1.3164128315   -1.8213819047   -6.3973760929
H       -2.3931746927   -0.5055243968   -5.8765961635
H        3.5319688832    1.6011662297   -2.7925669059
29   
Generated by ForceBalance from scan.xyz: Frame 13 of 24
C        1.2109673503    1.1899652042   -5.9480558922
C        2.0299827584    1.5009002853   -4.8783664499
C        0.0835619061   -0.3850365408   -4.5380639345
C        0.2003236629    0.2247788424   -5.7867706009
C        1.8313772486    0.8333717684   -3.6436926950
C        4.8281661638   -0.9013205506   -2.0492443302
C       -2.5205731400   -0.8445126800   -8.0037151177
C        3.3712371745   -1.0526564941   -1.5990303284
C        2.6580414657    0.2896287640   -1.3694879723
C       -1.7615324887   -0.8182457889   -6.6880105737
N        0.8789459787   -0.0913512117   -3.4916999158
N        2.6048229603    1.1678403615   -2.5373710965
O       -0.5626557004   -0.0636494254   -6.8926156119
H        1.3294704010    1.6773347976   -6.9119825376
H        2.8091994364    2.2528957915   -4.9784327569
H       -0.6716952936   -1.1436288891   -4.3497407677
H        4.8959076567   -0.3993904140   -3.0211910076
H        5.4125341552   -0.3176203170   -1.3267555272
H        5.3129373763   -1.8772823479   -2.1559325784
H       -2.7739681018    0.1705612720   -8.3231736157
H       -1.9183276074   -1.3138673473   -8.7871814310
H       -3.4475483291   -1.4159397061   -7.8895747715
H        3.3306045673   -1.6202052561   -0.6602490840
H        2.8060688041   -1.6271586419   -2.3396241499
H        1.6313156924    0.1074686413   -1.0450273916
H        3.1619097819    0.8498569391   -0.5730463395
H       -1.5101634493   -1.8385356852   -6.3665358796
H       -2.3597359663   -0.3496834055   -5.8944938187
H        3.4787483881    1.6218359256   -2.7695897495
29   
Generated by ForceBalance from scan.xyz: Frame 14 of 24
C        1.2118390265    1.1116278890   -5.9545036494
C        2.0093597782    1.4548016818   -4.8769274218
C        0.1354590460   -0.5039543286   -4.5515487191
C        0.2376841359    0.1103369764   -5.7994871793
C        1.8228809785    0.7839454513   -3.6429763269
C        4.8755229914   -0.8242932131   -2.0255109217
C       -2.5419613736   -0.7552217819   -8.0212000360
C        3.4229396513   -1.0382395536   -1.5867781769
C        2.6513264265    0.2720572354   -1.3617767309
C       -1.8059134154   -0.7722661868   -6.6921105260
N        0.9041308403   -0.1772674104   -3.4970312047
N        2.5712033242    1.1483453009   -2.5296502030
O       -0.4942292407   -0.2356341254   -6.9120593423
H        1.3222598511    1.6001797802   -6.9187935483
H        2.7617414301    2.2344136709   -4.9710573261
H       -0.5915346303   -1.2933850647   -4.3747002370
H        4.9293810971   -0.3193258227   -2.9967383999
H        5.4286799329   -0.2166558643   -1.2982057666
H        5.4023863713   -1.7785571712   -2.1286954360
H       -2.6305097252    0.2670297893   -8.4004560430
H       -2.0080929655   -1.3549683820   -8.7643195082
H       -3.5474779551   -1.1709876628   -7.8981549744
H        3.3992114657   -1.6081098310   -0.6488404459
H        2.8886386304   -1.6355626659   -2.3322548734
H        1.6305441470    0.0460982648   -1.0463187687
H        3.1241517912    0.8523781711   -0.5607322955
H       -1.7316545997   -1.7992230676   -6.3091614086
H       -2.3267512791   -0.1657198263   -5.9392715328
H        3.4262597025    1.6411168600   -2.7527986722
29   
Generated by ForceBalance from scan.xyz: Frame 15 of 24
C        1.1611123627    1.0366853184   -5.9396004269
C        1.9452253726    1.4094761742   -4.8602453180
C        0.1572474591   -0.6279970158   -4.5418607159
C        0.2322181291   -0.0052468217   -5.7874333686
C        1.7850550890    0.7290940697   -3.6286662431
C        4.9056894354   -0.7452567440   -2.0205647625
C       -2.5529285193   -0.7383845287   -8.0489761769
C        3.4657520603   -1.0278847768   -1.5791361519
C        2.6347118880    0.2444611470   -1.3485536931
C       -1.8817575555   -0.6863185126   -6.6868273710
N        0.9074825046   -0.2728803120   -3.4854060116
N        2.5147794562    1.1202955808   -2.5134663669
O       -0.4892678571   -0.3976610477   -6.8951055537
H        1.2515677413    1.5318505516   -6.9026125539
H        2.6658799371    2.2188698480   -4.9514969544
H       -0.5342780176   -1.4517103092   -4.3745275983
H        4.9334587922   -0.2352991404   -2.9902559658
H        5.4319511093   -0.1149538553   -1.2925914367
H        5.4759482715   -1.6737176135   -2.1281547759
H       -2.4585239458    0.2227432625   -8.5628800438
H       -2.0947074609   -1.5108825003   -8.6737516425
H       -3.6168386344   -0.9712338601   -7.9346385747
H        3.4705907701   -1.6010150385   -0.6429260304
H        2.9580927042   -1.6471834933   -2.3253083140
H        1.6255137322   -0.0291570971   -1.0336746929
H        3.0808317744    0.8430624651   -0.5457056637
H       -1.9945127015   -1.6482811176   -6.1695368136
H       -2.3227286025    0.0940710597   -6.0529998089
H        3.3433903409    1.6584028713   -2.7312910562
29   
Generated by ForceBalance from scan.xyz: Frame 16 of 24
C        1.1326051691    1.0318076612   -5.9089362496
C        1.9034175480    1.4067104465   -4.8190819357
C        0.2022308327   -0.7106852984   -4.5568050554
C        0.2521446383   -0.0532456522   -5.7855398463
C        1.7710897746    0.6873830792   -3.6071693165
C        4.9506129801   -0.6941218043   -2.0262641628
C       -2.5262280312   -0.8155041070   -8.0636531761
C        3.5235331827   -1.0505124383   -1.5967343405
C        2.6368971880    0.1779391530   -1.3376803176
C       -1.9045299627   -0.4673849435   -6.7221744049
N        0.9365970399   -0.3566608741   -3.4910731956
N        2.4829307003    1.0760456466   -2.4813873397
O       -0.4751403552   -0.4572458487   -6.8894865936
H        1.2019939795    1.5569339912   -6.8578234201
H        2.5920501357    2.2456926236   -4.8876656244
H       -0.4501925649   -1.5721444273   -4.4209753315
H        4.9580218815   -0.1597193984   -2.9830528561
H        5.4470236948   -0.0594825323   -1.2812921372
H        5.5613173330   -1.5937472528   -2.1546280301
H       -2.2552700976   -0.0723102643   -8.8193999546
H       -2.1803652573   -1.7960466668   -8.4042752404
H       -3.6174497703   -0.8427385453   -7.9764371441
H        3.5512625178   -1.6458827498   -0.6749402017
H        3.0451541531   -1.6727291056   -2.3596578439
H        1.6396667457   -0.1472179198   -1.0340350201
H        3.0538703968    0.7754219021   -0.5185490409
H       -2.1918527268   -1.2043760221   -5.9615019781
H       -2.2329351186    0.5217840216   -6.3753721248
H        3.2834827683    1.6620042859   -2.6792269505
29   
Generated by ForceBalance from scan.xyz: Frame 17 of 24
C        1.0804176064    0.9933677412   -5.8825394509
C        1.8324155521    1.3849901649   -4.7846701586
C        0.2320072256   -0.8137009311   -4.5597648429
C        0.2543473693   -0.1346902735   -5.7767682613
C        1.7344012294    0.6375988902   -3.5863425396
C        4.9747012018   -0.6226511640   -2.0251327030
C       -2.5444399170   -0.8548282977   -8.0391909692
C        3.5656792414   -1.0516727911   -1.6025284689
C        2.6229375992    0.1299092651   -1.3247629430
C       -1.8895858454   -0.3132190461   -6.7806365304
N        0.9501962485   -0.4478721078   -3.4880005399
N        2.4282707962    1.0378128200   -2.4545522131
O       -0.4753512905   -0.5702104324   -6.8687775533
H        1.1280335402    1.5373636287   -6.8223076581
H        2.4825250967    2.2552830677   -4.8370352338
H       -0.3829230925   -1.7066001431   -4.4490972367
H        4.9573300249   -0.0731156452   -2.9731758574
H        5.4412255236    0.0221386860   -1.2696402682
H        5.6263363955   -1.4908820598   -2.1675392292
H       -2.1371506420   -0.3634972641   -8.9278720636
H       -2.3708275374   -1.9312357584   -8.1301197653
H       -3.6246044127   -0.6775714338   -8.0075839890
H        3.6207736422   -1.6596084000   -0.6902367032
H        3.1167318459   -1.6832336818   -2.3755631371
H        1.6417701661   -0.2458235661   -1.0273665855
H        3.0114878912    0.7332375256   -0.4960344857
H       -2.2997163829   -0.7980312910   -5.8847952743
H       -2.0540034042    0.7690032285   -6.6815316110
H        3.1978404557    1.6677032893   -2.6396730388
29   
Generated by ForceBalance from scan.xyz: Frame 18 of 24
C        0.9969508357    0.9300262915   -5.8384103649
C        1.7463215657    1.3506733380   -4.7499930099
C        0.2340383286   -0.9071965109   -4.5044198662
C        0.2151351895   -0.2286652082   -5.7206375837
C        1.6955223465    0.5969147781   -3.5518432314
C        5.0034541135   -0.5423942645   -2.0413534016
C       -2.5501307923   -0.8136907656   -8.0571428861
C        3.6181671703   -1.0234376156   -1.5969149116
C        2.6364825778    0.1222760721   -1.3043677893
C       -1.8712130158   -0.2129925942   -6.8388209122
N        0.9560766433   -0.5181795536   -3.4429956765
N        2.3913008769    1.0219585183   -2.4309404518
O       -0.5195914032   -0.7068456007   -6.7914602216
H        1.0162388134    1.4751440183   -6.7787966984
H        2.3629841765    2.2445290851   -4.8100120959
H       -0.3500424838   -1.8200820026   -4.3905405154
H        4.9507976311    0.0057508046   -2.9888988491
H        5.4574173661    0.1195957165   -1.2931116865
H        5.6846305391   -1.3858310218   -2.1941057667
H       -2.0235516968   -0.5269348294   -8.9723676154
H       -2.5596819714   -1.9058322832   -7.9927463633
H       -3.5842042729   -0.4597191902   -8.1247002943
H        3.7099774377   -1.6283922434   -0.6856153158
H        3.1810491827   -1.6716586599   -2.3628780447
H        1.6745635029   -0.2895812387   -0.9923219710
H        3.0148488107    0.7399256615   -0.4815187585
H       -2.3943245626   -0.4941844512   -5.9143720140
H       -1.8565919400    0.8847329843   -6.8945891881
H        3.1320402221    1.6826162857   -2.6259428219
29   
Generated by ForceBalance from scan.xyz: Frame 19 of 24
C        0.8966022709    0.8970411438   -5.7866008621
C        1.6574892101    1.3355310070   -4.7139354500
C        0.2092192976   -0.9609419178   -4.4401696926
C        0.1436139652   -0.2801643699   -5.6529194222
C        1.6557137313    0.5763761805   -3.5177163897
C        5.0293558936   -0.4754951949   -2.0892137834
C       -2.5359381064   -0.7772105098   -8.1085934429
C        3.6684232370   -0.9962944181   -1.6153408548
C        2.6625876253    0.1207500103   -1.2952621349
C       -1.8473856360   -0.1130856700   -6.9291722333
N        0.9499754388   -0.5582772582   -3.3962212929
N        2.3661866181    1.0171974070   -2.4120500500
O       -0.5998947485   -0.7938014152   -6.7002732082
H        0.8886843172    1.4451932351   -6.7254467561
H        2.2506950290    2.2442427844   -4.7863666260
H       -0.3512570138   -1.8869887770   -4.3170965953
H        4.9398922034    0.0746095225   -3.0328637103
H        5.4819644637    0.1959296522   -1.3485890686
H        5.7298157937   -1.2992014978   -2.2612357427
H       -1.9131751326   -0.7104192388   -9.0057460685
H       -2.7250862019   -1.8340206570   -7.8981993089
H       -3.4933300138   -0.2858536259   -8.3114100957
H        3.7978563751   -1.6019262178   -0.7090737745
H        3.2317467523   -1.6534659462   -2.3738904350
H        1.7199826854   -0.3187708378   -0.9627152587
H        3.0428346856    0.7457398667   -0.4788425199
H       -2.4641408210   -0.1756145419   -6.0217807895
H       -1.6575535581    0.9499796564   -7.1326647562
H        3.0838430032    1.6983922903   -2.6221528245
29   
Generated by ForceBalance from scan.xyz: Frame 20 of 24
C        0.8044689938    0.8796473975   -5.7116214872
C        1.5784164606    1.3174041494   -4.6474923775
C        0.1862242286   -1.0109311099   -4.3782341974
C        0.0768818985   -0.3142374049   -5.5795848564
C        1.6228989999    0.5407284153   -3.4643962347
C        5.0525711055   -0.4574766704   -2.1294211070
C       -2.5227361139   -0.8121740914   -8.1242433447
C        3.7137897823   -1.0169020839   -1.6367658768
C        2.6912039882    0.0715763858   -1.2740281298
C       -1.7835649954   -0.0444617426   -7.0420836029
N        0.9444961073   -0.6105648671   -3.3466531457
N        2.3484366350    0.9807466898   -2.3670535899
O       -0.6763321118   -0.8522524969   -6.6058695978
H        0.7714885612    1.4475193014   -6.6376728233
H        2.1482287349    2.2410033904   -4.7192887951
H       -0.3548579469   -1.9484579509   -4.2573545281
H        4.9309147685    0.1082156381   -3.0601966125
H        5.5064757888    0.2097166499   -1.3857689758
H        5.7668191675   -1.2621522285   -2.3321636485
H       -1.8614438210   -1.0154520119   -8.9718955630
H       -2.8894377141   -1.7669965587   -7.7362195204
H       -3.3781495067   -0.2294062307   -8.4816896868
H        3.8761210713   -1.6361445807   -0.7450985730
H        3.2751592692   -1.6695447089   -2.3980903978
H        1.7666711678   -0.3947461449   -0.9275757998
H        3.0766724114    0.6905567547   -0.4554223947
H       -2.4374597537    0.1637172936   -6.1840685220
H       -1.4205524838    0.9169439353   -7.4296036772
H        3.0497118276    1.6766245097   -2.5846872304
29   
Generated by ForceBalance from scan.xyz: Frame 21 of 24
C        0.7194014998    0.9039171428   -5.6473158717
C        1.4895724579    1.3348859085   -4.5758599148
C        0.1812731321   -1.0452772743   -4.3655598949
C        0.0414735436   -0.3219728931   -5.5499811128
C        1.5776602244    0.5246723437   -3.4201927358
C        5.0525664594   -0.4028196820   -2.1698158862
C       -2.5670598471   -0.8342348720   -8.0748565517
C        3.7406676770   -1.0219087598   -1.6761451706
C        2.6898387274    0.0199130681   -1.2604694245
C       -1.6484393574    0.0139766653   -7.2117973292
N        0.9367086487   -0.6507061917   -3.3313403138
N        2.3002126874    0.9552602872   -2.3151774584
O       -0.7212356537   -0.8688836780   -6.5606540690
H        0.6523411687    1.5105556594   -6.5456750155
H        2.0183057059    2.2841335384   -4.6226178252
H       -0.3337273748   -1.9995854028   -4.2650022153
H        4.8974944786    0.1897746887   -3.0786509619
H        5.4969971122    0.2533675187   -1.4108002121
H        5.7888940083   -1.1763991433   -2.4110640609
H       -1.9896667842   -1.3887684040   -8.8205804797
H       -3.1179086403   -1.5523858789   -7.4605859163
H       -3.2871606067   -0.1959461626   -8.5975680566
H        3.9375131124   -1.6656042453   -0.8090624777
H        3.3108761449   -1.6623113990   -2.4527756283
H        1.7865097331   -0.4879195194   -0.9164247016
H        3.0686329745    0.6222256951   -0.4264195051
H       -2.2150046280    0.5692044775   -6.4523128307
H       -1.1086815373    0.7415117795   -7.8327800192
H        2.9806048992    1.6749337839   -2.5219336593
29   
Generated by ForceBalance from scan.xyz: Frame 22 of 24
C        0.6140262615    0.9027503392   -5.5749151499
C        1.3998307962    1.3334920510   -4.5124820525
C        0.1513087332   -1.0794500274   -4.3109172684
C       -0.0295774329   -0.3412592886   -5.4828480040
C        1.5331508982    0.5091651822   -3.3737750068
C        5.0541709928   -0.3634055207   -2.2235597109
C       -2.5656746099   -0.8025991099   -8.0847347782
C        3.7682299457   -1.0196167354   -1.7098431673
C        2.7060253469   -0.0082993369   -1.2496141679
C       -1.5363151650    0.0074551885   -7.3148219050
N        0.9185746260   -0.6815156440   -3.2890418838
N        2.2703658928    0.9380213092   -2.2761230951
O       -0.8148627075   -0.8958924488   -6.4676336003
H        0.5100971317    1.5277191926   -6.4563591403
H        1.9007928142    2.2978376034   -4.5547645119
H       -0.3422740861   -2.0453200965   -4.2128149118
H        4.8641236086    0.2420579584   -3.1171551505
H        5.5029869037    0.2885627952   -1.4634740409
H        5.8007748627   -1.1162149011   -2.4968834838
H       -2.0760205912   -1.5766147558   -8.6830319466
H       -3.2659908385   -1.2874049412   -7.3984845823
H       -3.1306294204   -0.1492963895   -8.7578699783
H        4.0001161273   -1.6745946026   -0.8600153224
H        3.3332695026   -1.6550685534   -2.4876997334
H        1.8225857136   -0.5418744963   -0.8930688979
H        3.0925955114    0.5863855635   -0.4136152156
H       -2.0172435048    0.7805585544   -6.7002934439
H       -0.8462424908    0.5053657284   -8.0101517516
H        2.9337749890    1.6718805014   -2.4883396830
29   
Generated by ForceBalance from scan.xyz: Frame 23 of 24
C        0.8313097932    1.6965334503   -5.9439502460
C        1.8530476976    1.7630698643   -5.0015738682
C       -0.3076126856    0.2004239684   -4.4602743810
C       -0.2837082365    0.8877018895   -5.6781057179
C        1.7435016503    1.0224034821   -3.8064573323
C        2.1440137819    2.9227280169   -0.5389598052
C       -2.8602932697    1.3626783321   -8.2466344228
C        1.6263257755    1.4861370566   -0.6674574166
C        2.5431514239    0.5765127875   -1.5011363194
C       -1.5175200574    1.6394420625   -7.5919677805
N        0.6682380956    0.2596012925   -3.5485309803
N        2.7757560586    1.0256291969   -2.8735854656
O       -1.3609784569    0.7136494886   -6.5134908514
H        0.9145529866    2.2646554168   -6.8644490972
H        2.7312921675    2.3762618042   -5.1894241466
H       -1.1676378930   -0.4248492835   -4.2246617402
H        3.1498077844    2.9488647728   -0.1009033698
H        2.1885874243    3.4200446456   -1.5146541618
H        1.4888335151    3.5240057007    0.0998795711
H       -2.9021657174    0.3345470964   -8.6178374460
H       -3.6750084320    1.5054661144   -7.5308886048
H       -3.0133940449    2.0432316571   -9.0906177565
H        0.6284050695    1.4846631664   -1.1171965244
H        1.5239247713    1.0384582413    0.3295931530
H        3.5264319349    0.4966503525   -1.0227951313
H        2.1175746438   -0.4279886313   -1.5478562190
H       -1.4713956618    2.6674419512   -7.2058898035
H       -0.7020116799    1.5114278701   -8.3178633404
H        3.4013681636    1.8162471838   -2.9599426435
29   
Generated by ForceBalance from scan.xyz: Frame 24 of 24
C        0.7363181560    1.8061274992   -5.8884346732
C        1.7852875512    1.8353937708   -4.9737061057
C       -0.3715787388    0.2727644487   -4.4181994542
C       -0.3791840284    1.0015954487   -5.6124423665
C        1.7025007253    1.0629407634   -3.7974188145
C        2.2091921796    2.8650434429   -0.4900549444
C       -2.8247749465    1.2836057149   -8.3372163805
C        1.6755981974    1.4369035557   -0.6452100641
C        2.5615508553    0.5441387706   -1.5290455324
C       -1.5146934955    1.6020097114   -7.6370594977
N        0.6284894785    0.3002953743   -3.5323278663
N        2.7610830175    1.0298101873   -2.8944010610
O       -1.4873983977    0.8658902560   -6.4127964536
H        0.8000918428    2.4012999357   -6.7929724083
H        2.6643780428    2.4446561322   -5.1701407833
H       -1.2281396255   -0.3558740884   -4.1787723257
H        3.2268013657    2.8705540064   -0.0793869960
H        2.2313285478    3.3899687914   -1.4519590171
H        1.5770134060    3.4528548579    0.1835460955
H       -2.9005909184    0.2118229966   -8.5421553823
H       -3.6756136359    1.5781369388   -7.7160554742
H       -2.8831554306    1.8249004396   -9.2871571053
H        0.6658315362    1.4563564568   -1.0672336800
H        1.5964066583    0.9617460287    0.3411829495
H        3.5566829361    0.4429933287   -1.0801172667
H        2.1262923744   -0.4552714734   -1.5922554764
H       -1.4367055006    2.6781687976   -7.4261312548
H       -0.6585462083    1.3150153703   -8.2639565345
H        3.3887182298    1.8196324667   -2.9739926579
