22   
Generated by ForceBalance from scan.xyz: Frame 1 of 24
C        1.6129978336   -1.7862642849    0.1537695915
C        0.5096034572   -1.2292692226    0.7854257446
C        5.3376508207   -2.5213164008    0.5067635653
C        3.9703947424   -2.5848560167   -1.4437354742
C        1.9578308556   -0.4335423016    2.5468919803
C        6.3695503734   -3.0459081456   -0.2742060909
C        5.0644556113   -3.1050132583   -2.1335128782
C        2.9256859629   -1.7153203874    0.6731207641
C        4.0761625612   -2.2849294788   -0.0714763978
C        0.6788164285   -0.5439947974    1.9959340444
C        3.0351874271   -1.0096032620    1.8814049331
N        6.2608352292   -3.3431425114   -1.5762413315
O       -0.4322458497   -0.0097451384    2.5881611769
F        4.2479003312   -0.8267465994    2.4672491326
H        1.4428906907   -2.3315545393   -0.7675804462
H       -0.4854740761   -1.3191966889    0.3617968067
H        5.5241361557   -2.3278433152    1.5539687214
H        3.0570657739   -2.3960279622   -1.9970175608
H        2.1433529721    0.0985276508    3.4764875958
H        7.3413388375   -3.2353178768    0.1797466099
H        4.9748746978   -3.3343470287   -3.1944858440
H       -0.1796083942    0.4322294823    3.4144790053
22   
Generated by ForceBalance from scan.xyz: Frame 2 of 24
C        1.6066149218   -1.8926283486    0.2156435910
C        0.5026876535   -1.3559684101    0.8664529564
C        5.2810303105   -2.6351952701    0.5406429638
C        4.0162057275   -2.4322548534   -1.4752949026
C        1.9846195311   -0.3346214723    2.4859800457
C        6.3139252610   -3.1700850268   -0.2313303659
C        5.1070503539   -2.9765087305   -2.1536863755
C        2.9299464728   -1.6912569999    0.6614127283
C        4.0797473596   -2.2550944849   -0.0818663066
C        0.6903635257   -0.5691485540    2.0109796313
C        3.0611704252   -0.8952725973    1.8069567408
N        6.2498833132   -3.3484399383   -1.5588595816
O       -0.4232453427   -0.0600487040    2.6219536740
F        4.2956278949   -0.6085380398    2.2963174208
H        1.4404199316   -2.5205452047   -0.6540407000
H       -0.5058475440   -1.5403387147    0.5106471635
H        5.4131444604   -2.5373662016    1.6114487897
H        3.1404985979   -2.1261075276   -2.0394037389
H        2.1771620695    0.2797628145    3.3619106204
H        7.2441358489   -3.4729158839    0.2473947243
H        5.0617441507   -3.1125432089   -3.2333846980
H       -0.1592541618    0.4593211433    3.3981095499
22   
Generated by ForceBalance from scan.xyz: Frame 3 of 24
C        1.6143444621   -1.9713136982    0.2741463362
C        0.5087804440   -1.4659181137    0.9496317754
C        5.2184948079   -2.7280386868    0.5552612985
C        4.0777547913   -2.2938749673   -1.5010844971
C        1.9983778420   -0.2463573892    2.4243735716
C        6.2492339443   -3.2884338012   -0.2012349956
C        5.1607923424   -2.8755549143   -2.1631210828
C        2.9361399657   -1.6450084012    0.6348809736
C        4.0907707304   -2.2094041997   -0.0999364682
C        0.7013995809   -0.5955622176    2.0310718364
C        3.0756831891   -0.7800827132    1.7253094446
N        6.2393048163   -3.3715005618   -1.5401202122
O       -0.4134119164   -0.1201772397    2.6680904893
F        4.3174087356   -0.4061408127    2.1285977764
H        1.4580592478   -2.6611947627   -0.5501061514
H       -0.5018288363   -1.7383847521    0.6628586568
H        5.2936275594   -2.7053034436    1.6373209993
H        3.2457881042   -1.8935798829   -2.0737712820
H        2.1885239072    0.4317557471    3.2525332112
H        7.1274218398   -3.6970317045    0.2966839159
H        5.1627440318   -2.9411993211   -3.2503115356
H       -0.1471208476    0.4648596050    3.3951131010
22   
Generated by ForceBalance from scan.xyz: Frame 4 of 24
C        1.6242925611   -2.0633670113    0.3506957052
C        0.5230890091   -1.5758344896    1.0485368300
C        5.1425977501   -2.8354155582    0.5549116395
C        4.1523620065   -2.1571047901   -1.5151876251
C        2.0012259626   -0.1561246514    2.3482810094
C        6.1775522152   -3.4033403005   -0.1907664088
C        5.2323396605   -2.7586493537   -2.1666384059
C        2.9334856350   -1.6208979541    0.6125279974
C        4.0970669789   -2.1841606893   -0.1147423062
C        0.7124742871   -0.6149448598    2.0508944788
C        3.0740576791   -0.6750259760    1.6306031344
N        6.2378414514   -3.3760532091   -1.5307474345
O       -0.3989537212   -0.1617858346    2.7110764472
F        4.3128366834   -0.2133889848    1.9390423998
H        1.4769105805   -2.8184591819   -0.4164319242
H       -0.4809437494   -1.9304089987    0.8387091112
H        5.1513495545   -2.9012917657    1.6387675205
H        3.3732999911   -1.6637796800   -2.0900476024
H        2.1865981262    0.5903519832    3.1166174325
H        6.9965452180   -3.9131161529    0.3146648846
H        5.2921271574   -2.7406331682   -3.2540216114
H       -0.1359269390    0.4931850846    3.3770295354
22   
Generated by ForceBalance from scan.xyz: Frame 5 of 24
C        1.6366951258   -2.1840099374    0.4658193681
C        0.5405496011   -1.6928689525    1.1707350284
C        5.0537828574   -2.9822877614    0.5349911365
C        4.2371525664   -2.0153170200   -1.4962870631
C        1.9848284290   -0.0642770188    2.2449361915
C        6.1018651825   -3.5273850779   -0.2108006108
C        5.3222340002   -2.6064903124   -2.1501481763
C        2.9233738880   -1.6396088061    0.6153669208
C        4.0927172709   -2.1976694510   -0.1152758383
C        0.7158642743   -0.6265387945    2.0628165349
C        3.0534600941   -0.5885807167    1.5236205157
N        6.2482736679   -3.3529918659   -1.5325252416
O       -0.3904600388   -0.1747029446    2.7335736665
F        4.2759571476   -0.0321965733    1.7173460769
H        1.5020950876   -3.0158006572   -0.2201502105
H       -0.4485309332   -2.1223745702    1.0478994892
H        4.9876134434   -3.1666614104    1.6034915710
H        3.5204097525   -1.4176407297   -2.0527237272
H        2.1581630065    0.7639154298    2.9275886082
H        6.8582922921   -4.1399036295    0.2778559146
H        5.4524922735   -2.4721318593   -3.2231197966
H       -0.1384802445    0.5591828546    3.3162478365
22   
Generated by ForceBalance from scan.xyz: Frame 6 of 24
C        1.6562664144   -2.3119217816    0.6206151660
C        0.5660508418   -1.7989852661    1.3200316085
C        4.9540960761   -3.1557569298    0.4848562513
C        4.3286974939   -1.8727408821   -1.4355646162
C        1.9549819783    0.0262874866    2.1128131832
C        6.0190087805   -3.6605638102   -0.2668924044
C        5.4220734914   -2.4360027124   -2.1000016122
C        2.9135835896   -1.6864809182    0.6403784188
C        4.0781943733   -2.2380456243   -0.1074738378
C        0.7165580783   -0.6245503432    2.0693094732
C        3.0176427700   -0.5210512702    1.3990653153
N        6.2625110270   -3.3173979763   -1.5397642295
O       -0.3829735495   -0.1568420408    2.7409651685
F        4.2101279945    0.1237159204    1.4534127827
H        1.5385703692   -3.2228019094    0.0401288413
H       -0.4010829654   -2.2908899010    1.2974843819
H        4.8096083762   -3.4730406056    1.5138332018
H        3.6835230751   -1.1622164059   -1.9447436205
H        2.1095171407    0.9390258195    2.6829569551
H        6.7096697460   -4.3764337309    0.1766560152
H        5.6317060022   -2.1647824551   -3.1337894061
H       -0.1495533843    0.6552494250    3.2180328076
22   
Generated by ForceBalance from scan.xyz: Frame 7 of 24
C        1.7072951800   -2.4072506157    0.7772704444
C        0.6163761619   -1.8869193120    1.4694521535
C        4.8540744474   -3.3010001304    0.4128004841
C        4.4305439365   -1.7406504499   -1.3513083134
C        1.9119581737    0.1009126410    1.9789656029
C        5.9249876062   -3.7842216429   -0.3449132293
C        5.5211773472   -2.2931265576   -2.0275619430
C        2.9217919716   -1.7096424769    0.6668963726
C        4.0726265528   -2.2581930014   -0.1000320958
C        0.7203326131   -0.6273773178    2.0745565648
C        2.9760234223   -0.4547246113    1.2743615219
N        6.2654760216   -3.3002038090   -1.5474865254
O       -0.3770295159   -0.1552650033    2.7462312470
F        4.1206439521    0.2691470423    1.1915839990
H        1.6237701787   -3.3810893390    0.3026636689
H       -0.3170721584   -2.4350943325    1.5468733680
H        4.6334961697   -3.7292645053    1.3866822665
H        3.8670613124   -0.9245918024   -1.7947120665
H        2.0296907744    1.0801977651    2.4362785248
H        6.5417001713   -4.5966903271    0.0370025906
H        5.8103115636   -1.9074112944   -3.0041825339
H       -0.1785864264    0.7196279611    3.1160591138
22   
Generated by ForceBalance from scan.xyz: Frame 8 of 24
C        2.9659509667   -0.2188900496    0.9460401188
C        1.9416836968    0.3877353329    1.6674557033
C        4.4200843351   -1.7993078629   -1.3899463467
C        4.8133404710   -3.2866569625    0.4425131694
C        0.8191685678   -1.7566264200    1.8361912988
C        5.4822098695   -2.4196991765   -2.0531714427
C        5.8548704790   -3.8405570960   -0.3046880725
C        2.9559035730   -1.5913032912    0.6389955576
C        4.0744847526   -2.2264006876   -0.1003803154
C        0.8608639582   -0.3849950004    2.1129653586
C        1.8670654429   -2.3236182972    1.1176789275
N        6.1998024147   -3.4251582682   -1.5328210304
O       -0.1257193634    0.2526803241    2.8177871801
F        1.8002898620   -3.6552797874    0.8638680961
H        3.8091458002    0.3796235363    0.6123712181
H        1.9653612401    1.4474972982    1.9001410798
H        3.8665193399   -0.9991321668   -1.8736522783
H        4.5875009569   -3.6708168951    1.4327822406
H       -0.0040506700   -2.3874678892    2.1622224503
H        5.7638252639   -2.0971018599   -3.0546515467
H        6.4436682482   -4.6596138964    0.1058480262
H       -0.8098876023   -0.3877460910    3.0696329339
22   
Generated by ForceBalance from scan.xyz: Frame 9 of 24
C        2.8992565986   -0.2209086058    0.8310629110
C        1.8742067923    0.4003859599    1.5365037213
C        4.5050664676   -1.7146867561   -1.3154834538
C        4.7300880223   -3.3940398083    0.3720492513
C        0.8693538253   -1.7682310758    1.9443112405
C        5.5697109587   -2.3208427215   -1.9857028305
C        5.7828681904   -3.9236032398   -0.3763651713
C        2.9550216466   -1.6166508324    0.6526436145
C        4.0649668375   -2.2501117648   -0.0950062160
C        0.8507291233   -0.3769638927    2.0954228712
C        1.9168164842   -2.3490036112    1.2372093065
N        6.2123736652   -3.4089396758   -1.5383560260
O       -0.1389390092    0.2754575469    2.7808720254
F        1.8933886278   -3.6998899588    1.1015796857
H        3.6990275802    0.3862993317    0.4167868062
H        1.8540197799    1.4769910048    1.6716766836
H        4.0157478466   -0.8469593351   -1.7491258810
H        4.4426503844   -3.8621652186    1.3077581735
H        0.0904744236   -2.4052330649    2.3559772274
H        5.9181770400   -1.9145113416   -2.9342580006
H        6.3109475397   -4.8072245819   -0.0208332963
H       -0.7801022822   -0.3702063659    3.1181611530
22   
Generated by ForceBalance from scan.xyz: Frame 10 of 24
C        2.8279063937   -0.2265474472    0.7311730950
C        1.7993581453    0.4053113807    1.4194684277
C        4.5908021059   -1.6408373223   -1.2335883706
C        4.6563788945   -3.4742062238    0.2959033216
C        0.9216776458   -1.7625741366    2.0472664677
C        5.6557746284   -2.2349129071   -1.9116802235
C        5.7184430497   -3.9837673679   -0.4531296771
C        2.9604997610   -1.6296125415    0.6743982345
C        4.0567558943   -2.2639542467   -0.0923222832
C        0.8363778007   -0.3669220977    2.0831403979
C        1.9702398340   -2.3536815517    1.3507728339
N        6.2271909758   -3.3905433083   -1.5430365225
O       -0.1594396860    0.2942646350    2.7495075088
F        1.9873124070   -3.7118606358    1.3237778959
H        3.5796750787    0.3869676505    0.2446137193
H        1.7302931278    1.4875648185    1.4609075907
H        4.1666888705   -0.7176148024   -1.6167933662
H        4.3168472788   -4.0114535646    1.1735078842
H        0.1893732868   -2.3995664947    2.5369036374
H        6.0670749434   -1.7583009635   -2.8004950092
H        6.1887432346   -4.9198649442   -0.1553375218
H       -0.7545278139   -0.3492912535    3.1660881053
22   
Generated by ForceBalance from scan.xyz: Frame 11 of 24
C        2.7437450782   -0.2330619494    0.6243985540
C        1.7119156573    0.4029652004    1.3012368713
C        4.6959666417   -1.5748404518   -1.1462818334
C        4.5750034472   -3.5387770998    0.1989174015
C        0.9866130614   -1.7404404619    2.1500921206
C        5.7566690552   -2.1691580927   -1.8284792160
C        5.6433647346   -4.0420517853   -0.5459649445
C        2.9665493865   -1.6273117222    0.6814710237
C        4.0558950450   -2.2644825188   -0.0986168542
C        0.8223524088   -0.3549427210    2.0744060404
C        2.0354973490   -2.3354465251    1.4569024563
N        6.2425924819   -3.3876675012   -1.5502655884
O       -0.1794710728    0.3085303315    2.7276977433
F        2.1043784934   -3.6898189903    1.5483422681
H        3.4299567288    0.3847423236    0.0563817244
H        1.5838393342    1.4793089324    1.2479095248
H        4.3605405558   -0.5950819895   -1.4686580175
H        4.1730037249   -4.1375137074    1.0047538680
H        0.3135952909   -2.3729708101    2.7233769179
H        6.2405417517   -1.6348753655   -2.6449738366
H        6.0411992359   -5.0289872742   -0.3135907982
H       -0.7194437334   -0.3262988674    3.2250705442
22   
Generated by ForceBalance from scan.xyz: Frame 12 of 24
C        2.6115907637   -0.2803698811    0.4793193930
C        1.5735776662    0.3548593651    1.1454819135
C        4.8412504673   -1.5182504539   -0.9951235716
C        4.4528105722   -3.6161109314    0.0568812569
C        1.0757129900   -1.7147607827    2.2807562885
C        5.8934353800   -2.1154929726   -1.6863014267
C        5.5251519004   -4.1172250242   -0.6845084151
C        2.9448927120   -1.6431697281    0.6636075481
C        4.0709169407   -2.2667156034   -0.0815696341
C        0.7927765952   -0.3659088031    2.0583998067
C        2.1263947596   -2.3108885529    1.5903499947
N        6.2527538074   -3.4004554550   -1.5507703915
O       -0.2207362952    0.2951052909    2.6948529546
F        2.3223957820   -3.6260660895    1.8751220093
H        3.1878225160    0.3161684353   -0.2166081378
H        1.3546368262    1.4034911982    0.9717068438
H        4.6452565570   -0.4704520111   -1.1883029005
H        3.9360153880   -4.2858608698    0.7273760278
H        0.5019008044   -2.3203363256    2.9776562138
H        6.4797300520   -1.5247843399   -2.3888562327
H        5.8110164803   -5.1619222358   -0.5689757089
H       -0.6797666240   -0.3138840416    3.2952385253
22   
Generated by ForceBalance from scan.xyz: Frame 13 of 24
C        2.4888580542   -0.3401981194    0.3377083046
C        1.4437596999    0.2909142937    0.9986318617
C        4.9628474518   -1.4761163070   -0.8197124559
C        4.3160614774   -3.6489468881   -0.0849883821
C        1.1845361921   -1.6615505589    2.3976569118
C        6.0057773446   -2.0794207386   -1.5212098128
C        5.3897513973   -4.1519390883   -0.8224183761
C        2.9247805622   -1.6482193626    0.6473212687
C        4.0773950885   -2.2618340832   -0.0571577625
C        0.7806664272   -0.3728364814    2.0394568735
C        2.2353019157   -2.2568067429    1.7074855991
N        6.2375196853   -3.4000938842   -1.5378201179
O       -0.2448474726    0.2825531595    2.6635668144
F        2.5938782359   -3.4940158431    2.1412162612
H        2.9626153630    0.1911550787   -0.4798657735
H        1.1250774940    1.2901720342    0.7199869389
H        4.8799565580   -0.3951145633   -0.8494578020
H        3.6761795695   -4.3420751784    0.4437143906
H        0.7130198315   -2.2119891182    3.2078357943
H        6.6933426617   -1.4647356782   -2.1005711496
H        5.5716689929   -5.2256662040   -0.8400796584
H       -0.6177094657   -0.2835608819    3.3581539558
22   
Generated by ForceBalance from scan.xyz: Frame 14 of 24
C        2.4070921483   -0.3988184107    0.2465359018
C        1.3534729754    0.2236786411    0.9047125540
C        5.0437324738   -1.4651710057   -0.6933818720
C        4.2237912917   -3.6526204719   -0.1950551661
C        1.2750638827   -1.6201977153    2.4723130019
C        6.0826527183   -2.0722160361   -1.3997333218
C        5.3010982898   -4.1584697463   -0.9246109639
C        2.9325155213   -1.6434222779    0.6520762204
C        4.0732709105   -2.2617449221   -0.0610775353
C        0.7813877695   -0.3894251802    2.0276463044
C        2.3275731492   -2.2105886989    1.7811972881
N        6.2281029436   -3.3991139807   -1.5266742638
O       -0.2544485850    0.2567544843    2.6459719385
F        2.7867572515   -3.3902432173    2.2743769645
H        2.8208424470    0.0777474204   -0.6366039580
H        0.9573476365    1.1739593674    0.5614991523
H        5.0167892787   -0.3825021428   -0.6150101338
H        3.5108474817   -4.3383405911    0.2471729198
H        0.8699457468   -2.1244792923    3.3460196785
H        6.8403805397   -1.4582508840   -1.8846799566
H        5.4209340093   -5.2354255403   -1.0339292482
H       -0.5612256789   -0.2696734994    3.4013521878
22   
Generated by ForceBalance from scan.xyz: Frame 15 of 24
C        2.3249001174   -0.4529613724    0.1724315158
C        1.2596397755    0.1539317154    0.8290559966
C        5.1195207645   -1.4686431953   -0.5784207405
C        4.1387391543   -3.6323097273   -0.3015733632
C        1.3568936073   -1.5694831962    2.5320577573
C        6.1551435325   -2.0862695643   -1.2826032844
C        5.2196533668   -4.1508800993   -1.0168183787
C        2.9430528059   -1.6221146114    0.6562929726
C        4.0684828588   -2.2496046016   -0.0730169061
C        0.7729356857   -0.4060371523    2.0180570033
C        2.4156643077   -2.1479781802    1.8401115531
N        6.2208644901   -3.4060260007   -1.5092821474
O       -0.2762101741    0.2237895407    2.6324720194
F        2.9635550438   -3.2685096998    2.3769835434
H        2.6849085969   -0.0243110529   -0.7584920217
H        0.7897204816    1.0493381786    0.4351157724
H        5.1424122736   -0.3951648510   -0.4125227509
H        3.3615709470   -4.2969530177    0.0610675021
H        1.0132314000   -2.0296271303    3.4551078131
H        6.9766008226   -1.4901220875   -1.6777574989
H        5.2819306522   -5.2215525249   -1.2062786040
H       -0.5195583772   -0.2609472754    3.4371754863
22   
Generated by ForceBalance from scan.xyz: Frame 16 of 24
C        2.2331741638   -0.5131428311    0.0975471176
C        1.1584461521    0.0744050168    0.7588268479
C        5.1986045685   -1.4864099850   -0.4659786503
C        4.0585847247   -3.5894155392   -0.4282200881
C        1.4450295977   -1.5019792613    2.5809933898
C        6.2311829442   -2.1198032727   -1.1628131270
C        5.1437343377   -4.1265881815   -1.1238611648
C        2.9490629866   -1.5934574808    0.6436937551
C        4.0689276638   -2.2281924121   -0.0939703415
C        0.7636937364   -0.4211963217    2.0087487164
C        2.5094908506   -2.0639862701    1.8832387589
N        6.2203189933   -3.4180148073   -1.4959442834
O       -0.2974950701    0.1877427020    2.6250382255
F        3.1517920182   -3.1104035981    2.4618227505
H        2.5299284337   -0.1355821272   -0.8771133593
H        0.6127498601    0.9051621904    0.3231029188
H        5.2760768274   -0.4327690682   -0.2118991716
H        3.2170663981   -4.2204677109   -0.1583301870
H        1.1699476131   -1.9110915987    3.5499561386
H        7.1142251497   -1.5560949599   -1.4607177008
H        5.1471726652   -5.1806232769   -1.3977997779
H       -0.4713575864   -0.2464781792    3.4752617626
22   
Generated by ForceBalance from scan.xyz: Frame 17 of 24
C        2.1314677573   -0.6158880491    0.0239172658
C        1.0545534349   -0.0367707370    0.6908689056
C        5.2705899181   -1.5404914457   -0.3273142046
C        3.9882932177   -3.5454455820   -0.5761373735
C        1.5392204473   -1.4131652946    2.6299670965
C        6.3038735651   -2.1799003382   -1.0186907498
C        5.0797200923   -4.0941766088   -1.2540917092
C        2.9424503538   -1.5928266383    0.6254354711
C        4.0720006370   -2.2294156047   -0.1041229779
C        0.7584600171   -0.4363914647    2.0008300482
C        2.6034812585   -1.9687825017    1.9256750554
N        6.2253274949   -3.4350941590   -1.4820423697
O       -0.3088822448    0.1610297412    2.6189642949
F        3.3454755681   -2.9158402967    2.5530291847
H        2.3563261244   -0.3102875484   -0.9942472810
H        0.4346186265    0.7163638439    0.2151866996
H        5.3982901497   -0.5231662901    0.0322076543
H        3.0869356300   -4.1321687763   -0.4232345052
H        1.3403701296   -1.7472323905    3.6452729868
H        7.2419010604   -1.6582249884   -1.2038182696
H        5.0302787254   -5.1138950838   -1.6334350463
H       -0.4089061277   -0.2008339959    3.5137497742
22   
Generated by ForceBalance from scan.xyz: Frame 18 of 24
C        2.0252029672   -0.7648121890   -0.0318223394
C        0.9505052032   -0.1784075064    0.6330092693
C        5.3228161743   -1.6130596627   -0.1606191316
C        3.9458733840   -3.4807456873   -0.7404695337
C        1.6326714915   -1.2927883541    2.6786793264
C        6.3623452423   -2.2304943744   -0.8622605357
C        5.0473112290   -4.0141546057   -1.4160749162
C        2.9272012242   -1.6210410171    0.6206618818
C        4.0757004732   -2.2457217495   -0.0939649545
C        0.7542945686   -0.4443546630    1.9946618553
C        2.6931862323   -1.8570011525    1.9749793020
N        6.2425312349   -3.4110029369   -1.4861755014
O       -0.3154729908    0.1538613084    2.6082598591
F        3.5340299376   -2.6766516207    2.6546213895
H        2.1771952119   -0.5583579841   -1.0876497414
H        0.2599068446    0.4818508805    0.1182284978
H        5.4826633424   -0.6545548854    0.3251960626
H        3.0023493907   -4.0188961534   -0.7190994667
H        1.5115883272   -1.5218477621    3.7345729073
H        7.3386028654   -1.7517959653   -0.9256932367
H        4.9637878046   -4.9730618009   -1.9257568238
H       -0.3412269400   -0.1086422077    3.5420676230
22   
Generated by ForceBalance from scan.xyz: Frame 19 of 24
C        1.9245196027   -0.9394283115   -0.0570923668
C        0.8553342650   -0.3357958536    0.6002889324
C        5.3472757142   -1.7163066833    0.0048898177
C        3.9019676106   -3.3925904243   -0.9045791326
C        1.7147843522   -1.1582104460    2.7161219118
C        6.3878866264   -2.2959266024   -0.7251484837
C        5.0088545870   -3.8950646819   -1.5951130428
C        2.9076797577   -1.6680989550    0.6333530279
C        4.0657139666   -2.2761852205   -0.0750646571
C        0.7493876584   -0.4477790944    1.9930814840
C        2.7689921922   -1.7419486481    2.0196365596
N        6.2384061468   -3.3674739481   -1.5177497043
O       -0.3197209010    0.1606862418    2.5970772220
F        3.6965126824   -2.4228652954    2.7390543051
H        2.0104356056   -0.8458756071   -1.1361728117
H        0.1025368969    0.2257346948    0.0564028756
H        5.5324632321   -0.8433872898    0.6243905211
H        2.9299364501   -3.8672714115   -1.0065399886
H        1.6648945607   -1.2668164898    3.7967241692
H        7.3906789887   -1.8739971060   -0.6749056676
H        4.9003990306   -4.7649047415   -2.2415672073
H       -0.2780169432    0.0121706159    3.5550956749
22   
Generated by ForceBalance from scan.xyz: Frame 20 of 24
C        1.8525883402   -1.0889560360   -0.0584165793
C        0.7789926297   -0.4842753684    0.5889563900
C        5.3780793984   -1.8305244799    0.1368297626
C        3.8792976203   -3.2873922962   -1.0275065793
C        1.7843169135   -1.0344283732    2.7280519321
C        6.4152255295   -2.3917920537   -0.6108131464
C        4.9854478924   -3.7808702273   -1.7242987642
C        2.9125961824   -1.6864959257    0.6469552634
C        4.0678993829   -2.2881510026   -0.0626248118
C        0.7432257256   -0.4593031036    1.9896856600
C        2.8410635755   -1.6224542795    2.0404302735
N        6.2405790216   -3.3517773042   -1.5316547666
O       -0.3328121473    0.1445730244    2.5846426208
F        3.8375211705   -2.1723349063    2.7803193159
H        1.8851354034   -1.0947034698   -1.1443556502
H       -0.0295917154   -0.0228249915    0.0312168233
H        5.5885727002   -1.0491303814    0.8608743936
H        2.8875785036   -3.6853468202   -1.2246861000
H        1.7898272601   -1.0370859530    3.8152085282
H        7.4381944954   -2.0466231631   -0.4676944062
H        4.8550526893   -4.5614879226   -2.4725978050
H       -0.2379826340    0.0986626545    3.5492999221
22   
Generated by ForceBalance from scan.xyz: Frame 21 of 24
C        1.7946330551   -1.1936185311   -0.0493742620
C        0.7072692756   -0.6132633629    0.5947345372
C        5.4039341717   -1.9274466341    0.2260659014
C        3.8645668408   -3.1673834195   -1.1205678423
C        1.8287731739   -0.9266669383    2.7216913621
C        6.4324869286   -2.5007515983   -0.5236963773
C        4.9642888506   -3.6828214023   -1.8094177789
C        2.9268920102   -1.6576683048    0.6479425807
C        4.0729892666   -2.2613498174   -0.0688591942
C        0.7224992860   -0.4802777061    1.9898261671
C        2.8975548765   -1.4949203365    2.0368879097
N        6.2366833317   -3.3658903754   -1.5301397594
O       -0.3684329192    0.0959124740    2.5835698626
F        3.9459731180   -1.9283115051    2.7833802609
H        1.7840963737   -1.2748925828   -1.1324402934
H       -0.1515148318   -0.2517563440    0.0383310312
H        5.6399458543   -1.2270104941    1.0202530337
H        2.8609892274   -3.4857679633   -1.3885936803
H        1.8751467959   -0.8488533972    3.8050472555
H        7.4689517972   -2.2464521090   -0.3065005302
H        4.8139227298   -4.3903574784   -2.6237235170
H       -0.2336625283    0.1328912940    3.5438895476
22   
Generated by ForceBalance from scan.xyz: Frame 22 of 24
C        1.7515981378   -1.2794130720   -0.0343813070
C        0.6487673666   -0.7354588837    0.6122479939
C        5.4261026768   -2.0225988025    0.2910249235
C        3.8689096536   -3.0425382671   -1.2049470518
C        1.8645326589   -0.8266643865    2.7050994512
C        6.4439978513   -2.6235226626   -0.4517575741
C        4.9579454260   -3.5960838732   -1.8787624083
C        2.9475167367   -1.6097978156    0.6371880213
C        4.0867329405   -2.2186202034   -0.0866576921
C        0.7034329223   -0.5072760785    1.9939847151
C        2.9466666403   -1.3644954625    2.0165832242
N        6.2365124657   -3.4010485619   -1.5244740041
O       -0.4034250235    0.0298861918    2.5930138200
F        4.0359413203   -1.6833917416    2.7631239527
H        1.7013167500   -1.4258370676   -1.1087512617
H       -0.2532383413   -0.4756605786    0.0675685368
H        5.6837662079   -1.3983734322    1.1381534947
H        2.8631941968   -3.2794209380   -1.5384913789
H        1.9449870948   -0.6781738753    3.7790190392
H        7.4837840623   -2.4684422256   -0.1671586004
H        4.7921886313   -4.2367289232   -2.7438737423
H       -0.2373464469    0.1405336682    3.5427657027
22   
Generated by ForceBalance from scan.xyz: Frame 23 of 24
C        1.7068930267   -1.3905329182   -0.0021903218
C        0.5943345164   -0.8717666714    0.6456679769
C        5.4277914764   -2.1393590934    0.3576688981
C        3.8904629163   -2.9090774570   -1.2924590472
C        1.8888735838   -0.7118455084    2.6791896594
C        6.4388916161   -2.7527164381   -0.3849280224
C        4.9715581815   -3.4863989381   -1.9567276327
C        2.9551253388   -1.5858334743    0.6315498838
C        4.0966326304   -2.1928040389   -0.0971896480
C        0.6814432367   -0.5274154280    2.0012096322
C        2.9794091655   -1.2320668703    1.9896400079
N        6.2409193036   -3.4216426014   -1.5288792227
O       -0.4361841384   -0.0189146699    2.6035662814
F        4.1049338247   -1.4115162891    2.7300519618
H        1.6125426938   -1.6219411578   -1.0570467370
H       -0.3430973638   -0.7218794716    0.1198423342
H        5.6943824404   -1.6114519965    1.2626752776
H        2.8979093510   -3.0510101475   -1.7055737196
H        2.0037526187   -0.4722751475    3.7332917381
H        7.4684073376   -2.7011622632   -0.0331366086
H        4.8047066202   -4.0388993985   -2.8803845381
H       -0.2426919654    0.1790680622    3.5338034075
22   
Generated by ForceBalance from scan.xyz: Frame 24 of 24
C        1.6623849441   -1.5912367260    0.0612077763
C        0.5544639558   -1.0549997163    0.7012956875
C        5.4053893185   -2.3345455589    0.4246940970
C        3.9393746089   -2.7572625818   -1.3998670819
C        1.9353885490   -0.5737321847    2.6202551058
C        6.4243911661   -2.9042575012   -0.3420164509
C        5.0244593818   -3.3062116878   -2.0802357929
C        2.9511302060   -1.6539487461    0.6422205845
C        4.0995765585   -2.2425847194   -0.0969646631
C        0.6867935654   -0.5384748357    1.9967620159
C        3.0191654821   -1.1209602429    1.9406053188
N        6.2655152865   -3.3912523896   -1.5793287988
O       -0.4273944926   -0.0185589094    2.5946366523
F        4.1907746422   -1.1097599048    2.6309575942
H        1.5131801763   -1.9784951487   -0.9387926006
H       -0.4155682703   -1.0282471149    0.2153917451
H        5.6480594447   -1.9734017248    1.4126031552
H        2.9830997518   -2.7442405995   -1.9087733219
H        2.0932828794   -0.1869577314    3.6237974866
H        7.4297159368   -2.9695812480    0.0720771565
H        4.8853464004   -3.6998521915   -3.0861788646
H       -0.2005151879    0.3026686484    3.4819773574
