22   
Generated by ForceBalance from scan.xyz: Frame 1 of 24
C        1.3688774608    0.1187710577    1.8285281437
C        1.6191291588   -0.4862527547    3.0477105595
C       -0.5249663280   -1.3345279202    1.5775596807
C        0.2604883519   -0.2936515464    1.0651956236
C        0.7565836137   -1.5241781730    3.4735172406
C       -0.0736751600    0.2756522999   -0.2588950529
C        1.9204928462    2.4412131903   -2.4229298021
C        0.6896561537    1.6330869854   -2.0548018424
N       -0.2924077741   -1.9442951430    2.7422749451
N        0.9251086655   -2.1356604319    4.7002944629
O       -1.1190336947    0.0805796868   -0.8586125747
O        0.9398377358    1.0276280043   -0.7616628133
H        2.0148268434    0.9095915289    1.4611688242
H        2.4545737824   -0.1755199992    3.6694567991
H       -1.3791321331   -1.6876323650    1.0041334715
H        2.1079345787    3.2275353236   -1.6854226224
H        2.8061142234    1.8012848365   -2.4804830503
H        1.7729110325    2.9136641410   -3.3995172718
H        0.4874805777    0.8394854191   -2.7796448057
H       -0.2059235303    2.2569166106   -1.9840481945
H        1.8549896238   -2.1331063485    5.0985364622
H        0.4154295148   -3.0052802957    4.8049533860
22   
Generated by ForceBalance from scan.xyz: Frame 2 of 24
C        1.2480620336    0.2457340029    1.9293153804
C        1.5277898695   -0.4055179079    3.1181721281
C       -0.4660422733   -1.3850871577    1.5256465227
C        0.2055496403   -0.2280158922    1.1118631982
C        0.7764556335   -1.5579362418    3.4494337815
C       -0.1332163515    0.3732690731   -0.1981568101
C        1.9728429721    2.3137210099   -2.4673191586
C        0.6822169728    1.6419877531   -2.0355627605
N       -0.1942635067   -2.0442884501    2.6548684622
N        0.9771309874   -2.2245208233    4.6433789947
O       -1.2167122387    0.2728730358   -0.7505332261
O        0.9302251297    1.0095600811   -0.7542336074
H        1.8187210122    1.1193224242    1.6297764117
H        2.3067222789   -0.0468338155    3.7857075613
H       -1.2576700358   -1.7945673525    0.9016948587
H        2.2797956682    3.0751798148   -1.7438972048
H        2.7806881999    1.5823402287   -2.5645256397
H        1.8289190944    2.7994795715   -3.4379085128
H        0.3603027231    0.8756904183   -2.7462711628
H       -0.1369594480    2.3579673774   -1.9225536890
H        1.8912777196   -2.1469907095    5.0698122531
H        0.5694947205   -3.1519164807    4.6730535316
22   
Generated by ForceBalance from scan.xyz: Frame 3 of 24
C        1.1276246081    0.3707911330    2.0426539387
C        1.4393616623   -0.3252966327    3.1982110278
C       -0.3867727493   -1.3989346509    1.4722092397
C        0.1603060599   -0.1484486427    1.1641789911
C        0.8090117244   -1.5710979957    3.4262919981
C       -0.1801263791    0.4935955248   -0.1290653125
C        2.0140386660    2.1931110145   -2.5056123907
C        0.6802502547    1.6643039462   -2.0110724596
N       -0.0753031518   -2.1029872924    2.5642670679
N        1.0438688062   -2.2920910376    4.5834867736
O       -1.2918584313    0.4984856654   -0.6301730499
O        0.9184236412    1.0081516924   -0.7387665945
H        1.6159008669    1.3147634345    1.8188626782
H        2.1558299392    0.0675684203    3.9146335362
H       -1.1089554658   -1.8503277702    0.7946935918
H        2.4343089491    2.9176331219   -1.8015180924
H        2.7332849687    1.3790157248   -2.6351917616
H        1.8782572084    2.6904839899   -3.4714796552
H        0.2450487028    0.9364105844   -2.7015076729
H       -0.0514193671    2.4639968954   -1.8639367580
H        1.9344880485   -2.1496427276    5.0420651323
H        0.7432431514   -3.2587397853    4.5333827818
22   
Generated by ForceBalance from scan.xyz: Frame 4 of 24
C        0.9959036579    0.4610775558    2.1514177778
C        1.3275015504   -0.2724534672    3.2789080279
C       -0.2787657710   -1.4192587096    1.3896680790
C        0.1365642004   -0.0991383740    1.1916876383
C        0.8321367328   -1.5918440413    3.3941200263
C       -0.2071775316    0.5965015279   -0.0785038525
C        2.0315757929    2.0502624933   -2.5725217211
C        0.6751209897    1.6750235853   -2.0050391433
N        0.0572108230   -2.1568690682    2.4529683175
N        1.0904756366   -2.3597769352    4.5174999522
O       -1.3367794255    0.7352776882   -0.5132209746
O        0.9063009793    0.9863128487   -0.7473493162
H        1.3871182449    1.4656673155    2.0157962374
H        1.9595890197    0.1482513443    4.0563163440
H       -0.9134391167   -1.9037778117    0.6496971570
H        2.5706180015    2.7163646135   -1.8921715736
H        2.6439581766    1.1597953206   -2.7421975583
H        1.9008162197    2.5666910319   -3.5290342316
H        0.1212061186    1.0064304860   -2.6699539279
H        0.0494333711    2.5521062735   -1.8162230163
H        1.9402133891   -2.1535806618    5.0267823524
H        0.9081550145   -3.3482378773    4.3869677293
22   
Generated by ForceBalance from scan.xyz: Frame 5 of 24
C        0.8736094403    0.5265805190    2.2776624393
C        1.2023355580   -0.2424703831    3.3834333867
C       -0.1119016152   -1.4249340112    1.3020630912
C        0.1709907203   -0.0601392303    1.2139303499
C        0.8545042350   -1.6120417537    3.3798034812
C       -0.1829469719    0.7023924598   -0.0212599929
C        2.0232349632    1.9187647764   -2.6655815077
C        0.6778488813    1.7095593379   -1.9958483019
N        0.2197930425   -2.1908762947    2.3476655924
N        1.1134527453   -2.4224392762    4.4756635625
O       -1.3140716731    1.0046992834   -0.3539782748
O        0.9147924657    0.9690535926   -0.7675862936
H        1.1493585425    1.5773218104    2.2416323860
H        1.7184311967    0.1928647067    4.2348746870
H       -0.6322064972   -1.9281452854    0.4885348782
H        2.6963237598    2.4930402035   -2.0220761979
H        2.4983871932    0.9606100233   -2.8954231346
H        1.8868539692    2.4699422096   -3.6016885139
H       -0.0093093770    1.1331232546   -2.6214773194
H        0.1888371141    2.6554030897   -1.7457775400
H        1.9056257295   -2.1656841992    5.0508964455
H        1.0556762162   -3.4128845210    4.2675443287
22   
Generated by ForceBalance from scan.xyz: Frame 6 of 24
C        0.7511987297    0.5581093768    2.4109583578
C        1.0450227984   -0.2475917846    3.5008519844
C        0.1261098748   -1.4171014296    1.2119752737
C        0.2784885510   -0.0298470116    1.2284096751
C        0.8623332182   -1.6430347721    3.3778623171
C       -0.0976837776    0.7999960247    0.0403803644
C        1.9639144490    1.7887616987   -2.8067861088
C        0.6804756154    1.7444669379   -1.9986416844
N        0.4118969779   -2.2131524556    2.2493394892
N        1.0906018453   -2.4950662529    4.4501695186
O       -1.1978979961    1.2846138342   -0.1468056274
O        0.9441178516    0.9520668204   -0.8080643388
H        0.8809935444    1.6353159583    2.4770617305
H        1.3995314514    0.1818903113    4.4339272614
H       -0.2421088070   -1.9180470324    0.3177794247
H        2.7722809479    2.2513947915   -2.2329424901
H        2.2781825726    0.7819051300   -3.0968678643
H        1.8058979793    2.3768285951   -3.7166683411
H       -0.1400991292    1.2790806219   -2.5518251800
H        0.3523225434    2.7405225331   -1.6883394566
H        1.7890772628   -2.1978078308    5.1196925618
H        1.1676830742   -3.4689251273    4.1792375464
22   
Generated by ForceBalance from scan.xyz: Frame 7 of 24
C        1.3509645018   -0.4998004215    1.3827382945
C        1.7821637611   -1.0793747255    2.5652769863
C       -0.8881490811   -0.6353552538    2.2175169435
C       -0.0226442617   -0.2941592230    1.1763244658
C        0.8182889645   -1.4154811372    3.5431757302
C       -0.5100406738    0.4364862403   -0.0323154477
C       -2.5096176044   -0.8063379253   -2.8237304357
C       -1.7389124474    0.2545284007   -2.0601378886
N       -0.4930130121   -1.1867243973    3.3711710750
N        1.1945930793   -1.9476438015    4.7677859303
O       -0.2646167263    1.6039001062   -0.2757285860
O       -1.2117653228   -0.3720012496   -0.8590286824
H        2.0687209914   -0.2049400707    0.6218008083
H        2.8386380080   -1.2536794274    2.7503710092
H       -1.9588273012   -0.4628192255    2.1179907938
H       -1.8586665466   -1.6421813948   -3.0964744370
H       -3.3386374847   -1.1949288157   -2.2249998291
H       -2.9197393946   -0.3741308008   -3.7422567108
H       -2.3734644370    1.0955302347   -1.7666377767
H       -0.9014152468    0.6534957853   -2.6393970836
H        2.0458669163   -2.4947669187    4.7804347846
H        0.4257977486   -2.3644211778    5.2804138457
22   
Generated by ForceBalance from scan.xyz: Frame 8 of 24
C        1.4212252636   -0.3988486531    1.4526601396
C        1.8047788599   -0.9551170972    2.6607702780
C       -0.8560169615   -0.8252255965    2.0606611071
C        0.0585685960   -0.3666466504    1.1085434909
C        0.7988127161   -1.4293423731    3.5354857882
C       -0.3872816906    0.3562932813   -0.1136374428
C       -2.6588148738   -0.7540180048   -2.7487218132
C       -1.7306187251    0.2374026613   -2.0717064916
N       -0.5092934124   -1.3496738497    3.2416307256
N        1.1183629258   -1.9472767855    4.7794403023
O       -0.0046668120    1.4685862188   -0.4330160986
O       -1.2145894346   -0.4001606999   -0.8732097159
H        2.1618823323    0.0103989736    0.7711590744
H        2.8515422061   -1.0050963937    2.9482001264
H       -1.9246272585   -0.7748631335    1.8582329125
H       -2.1241857155   -1.6703210539   -3.0157994983
H       -3.4935699003   -1.0194253745   -2.0932190607
H       -3.0656581690   -0.3122356817   -3.6641469788
H       -2.2479123147    1.1576135026   -1.7852287649
H       -0.8860065598    0.5133076750   -2.7093424400
H        2.0293292354   -2.3766257986    4.8764433466
H        0.3617376924   -2.4609132487    5.2162017199
22   
Generated by ForceBalance from scan.xyz: Frame 9 of 24
C        1.4539679899   -0.3016518507    1.5193133694
C        1.8012392743   -0.8484715801    2.7414718237
C       -0.8100080747   -0.9693228591    1.9424458334
C        0.1229660501   -0.3941417401    1.0732855916
C        0.7846314340   -1.4441717277    3.5262593756
C       -0.2878593655    0.2993060038   -0.1721303347
C       -2.7655375660   -0.6966307065   -2.6638326412
C       -1.7149575413    0.2244679826   -2.0714902593
N       -0.5005930281   -1.4876430203    3.1356888340
N        1.0609808399   -1.9629779222    4.7780396078
O        0.1973646374    1.3456296251   -0.5699630156
O       -1.2231481000   -0.4019185941   -0.8584008880
H        2.1940548757    0.1970029820    0.8999613489
H        2.8234236665   -0.8039143581    3.1076338909
H       -1.8590500253   -1.0191456727    1.6573888993
H       -2.3387098326   -1.6762037188   -2.8985382885
H       -3.5981774456   -0.8396889088   -1.9686376554
H       -3.1588414708   -0.2609626639   -3.5880821296
H       -2.1235925451    1.2073863196   -1.8194409893
H       -0.8715550852    0.3774479997   -2.7506879810
H        2.0034677945   -2.2904080907    4.9447618118
H        0.3308055452   -2.5595432318    5.1492249142
22   
Generated by ForceBalance from scan.xyz: Frame 10 of 24
C        1.4556169319   -0.2084571557    1.5796022563
C        1.7755476728   -0.7465185930    2.8124843873
C       -0.7566498931   -1.1002160071    1.8422150846
C        0.1669635352   -0.4077555329    1.0502285718
C        0.7737424795   -1.4567133020    3.5173054520
C       -0.2075555439    0.2435089088   -0.2258334816
C       -2.8514473406   -0.6334176246   -2.5879443731
C       -1.6898861457    0.2031851346   -2.0837440777
N       -0.4732150664   -1.6189036395    3.0411056262
N        1.0177992400   -1.9754898414    4.7748045001
O        0.3613690359    1.2152768355   -0.6978628158
O       -1.2317823636   -0.3946501417   -0.8443865189
H        2.1811930224    0.3668048162    1.0119422772
H        2.7639881728   -0.6155226841    3.2446968406
H       -1.7740123239   -1.2459607670    1.4864538643
H       -2.5402063846   -1.6668640569   -2.7668449137
H       -3.6727270547   -0.6394224024   -1.8650255132
H       -3.2242388790   -0.2173140970   -3.5295544073
H       -1.9827440114    1.2388084794   -1.8882501286
H       -0.8567669112    0.2193754372   -2.7920887839
H        1.9756606438   -2.2080001238    5.0023696817
H        0.3286406344   -2.6499238535    5.0864257439
22   
Generated by ForceBalance from scan.xyz: Frame 11 of 24
C        1.4347204942   -0.1258374386    1.6215708450
C        1.7388760877   -0.6543399761    2.8622050539
C       -0.6969837311   -1.2224499197    1.7561431120
C        0.1918317161   -0.4201180707    1.0295995378
C        0.7745078123   -1.4689971671    3.5035000549
C       -0.1502372186    0.1842204787   -0.2770597414
C       -2.9226454865   -0.5598564335   -2.5347911682
C       -1.6687250560    0.1796736417   -2.1055909279
N       -0.4245877378   -1.7405367562    2.9576663515
N        1.0016913779   -1.9884003261    4.7629939892
O        0.4960895466    1.0683579113   -0.8181961363
O       -1.2550014226   -0.3740427404   -0.8312716607
H        2.1346894239    0.5149120762    1.0934788272
H        2.6891515805   -0.4442257873    3.3457457394
H       -1.6746186326   -1.4591841194    1.3437947673
H       -2.7273717915   -1.6308946368   -2.6431639613
H       -3.7256236035   -0.4262671392   -1.8037111395
H       -3.2668761569   -0.1727580127   -3.4993729294
H       -1.8451290612    1.2520834507   -1.9827589818
H       -0.8524425402    0.0550847962   -2.8227716517
H        1.9638219701   -2.1265577726    5.0430868884
H        0.3660094843   -2.7315294134    5.0284611029
22   
Generated by ForceBalance from scan.xyz: Frame 12 of 24
C        1.3894028078   -0.0560831310    1.6715487921
C        1.6822280761   -0.5719292204    2.9200640605
C       -0.6358695927   -1.3458736550    1.6904179316
C        0.2006137736   -0.4415467493    1.0234728694
C        0.7686672699   -1.4831013005    3.5033985111
C       -0.1074860036    0.1151211652   -0.3122170759
C       -2.9847183031   -0.4730411789   -2.4830792826
C       -1.6526105898    0.1559438369   -2.1177734026
N       -0.3691117950   -1.8625284010    2.8937450032
N        0.9814163051   -1.9968142351    4.7672587377
O        0.6081358706    0.9042979438   -0.9103242062
O       -1.2811965732   -0.3471046042   -0.8100872502
H        2.0569613079    0.6442428820    1.1783963260
H        2.5868887496   -0.2855436605    3.4498056342
H       -1.5627647226   -1.6713895998    1.2254519144
H       -2.9060126173   -1.5637442716   -2.5185661833
H       -3.7567802488   -0.2047235421   -1.7557722224
H       -3.3017562397   -0.1181110311   -3.4691180388
H       -1.7124255352    1.2469542809   -2.0703265514
H       -0.8654907486   -0.1051549842   -2.8308985615
H        1.9363764696   -2.0422366880    5.0976490694
H        0.4089167906   -2.8018698587    4.9927589066
22   
Generated by ForceBalance from scan.xyz: Frame 13 of 24
C        1.3400670858    0.0107203323    1.7045459891
C        1.6239908614   -0.4917936030    2.9606827345
C       -0.5535822252   -1.4630957905    1.6214897698
C        0.2129469050   -0.4644362370    1.0076979496
C        0.7775740385   -1.4937900832    3.4940054447
C       -0.0647708203    0.0435234006   -0.3541007845
C       -3.0318258249   -0.3824869713   -2.4402353241
C       -1.6371981139    0.1321081755   -2.1342502546
N       -0.2865174203   -1.9754609483    2.8266455660
N        0.9808472017   -2.0003933872    4.7627563834
O        0.7092556103    0.7280829236   -1.0057336657
O       -1.2962039323   -0.3120133798   -0.7970367188
H        1.9677339534    0.7677135289    1.2436941696
H        2.4753360314   -0.1310968442    3.5317404004
H       -1.4203415803   -1.8729609721    1.1090571630
H       -3.0630740760   -1.4755138760   -2.4022932220
H       -3.7594542542    0.0100085098   -1.7236772405
H       -3.3301777384   -0.0638374844   -3.4443310917
H       -1.5866106130    1.2242197681   -2.1636711252
H       -0.8922922883   -0.2561429462   -2.8347568387
H        1.9204693190   -1.9592866321    5.1352564829
H        0.4813135648   -2.8614523260    4.9522441629
22   
Generated by ForceBalance from scan.xyz: Frame 14 of 24
C        1.2684595315    0.0615865982    1.7420204310
C        1.5490053110   -0.4245074404    3.0056897940
C       -0.4661207555   -1.5876082969    1.5688939629
C        0.2125057990   -0.5022411763    1.0020353376
C        0.7854749845   -1.5126129885    3.4931826962
C       -0.0336717918   -0.0442711172   -0.3844936210
C       -3.0706607438   -0.2800658266   -2.3991972667
C       -1.6232228245    0.0996383087   -2.1460892670
N       -0.1945475689   -2.0912393672    2.7768994143
N        0.9869896343   -2.0133892441    4.7654353473
O        0.7933509163    0.5233087605   -1.0808481765
O       -1.3072190056   -0.2834317574   -0.7834768915
H        1.8460767273    0.8741632822    1.3111167329
H        2.3391777256    0.0088267094    3.6130410962
H       -1.2638977506   -2.0770929525    1.0149958084
H       -3.2188949163   -1.3579609520   -2.2837550869
H       -3.7378208423    0.2375075495   -1.7036062660
H       -3.3520574293   -0.0008530227   -3.4197882911
H       -1.4552710565    1.1749129497   -2.2539367779
H       -0.9375683443   -0.4156793605   -2.8249746790
H        1.9044592011   -1.8867679779    5.1726703234
H        0.5730629345   -2.9251224106    4.9218948989
22   
Generated by ForceBalance from scan.xyz: Frame 15 of 24
C        1.1691785231    0.1099078351    1.7676403290
C        1.4508508622   -0.3501782495    3.0413311985
C       -0.3642351009   -1.7174653958    1.5224093936
C        0.2033512433   -0.5548759201    0.9903167077
C        0.7950418008   -1.5195803657    3.4956325264
C       -0.0155160782   -0.1486924504   -0.4196137967
C       -3.1003609987   -0.1524726157   -2.3745269662
C       -1.6142464056    0.0719301512   -2.1645892156
N       -0.0819441750   -2.1996480226    2.7372688407
N        0.9997077896   -2.0026966725    4.7751284517
O        0.8539686232    0.2964266935   -1.1508286439
O       -1.3151940946   -0.2658191487   -0.7853323977
H        1.6787091496    0.9793780899    1.3622421051
H        2.1663284193    0.1621533956    3.6789868905
H       -1.0790029945   -2.2905757445    0.9351378714
H       -3.3685070234   -1.1974860265   -2.1926178480
H       -3.6894021522    0.4778311039   -1.7018315651
H       -3.3688311019    0.0980477826   -3.4059819203
H       -1.3265064489    1.1126376381   -2.3381664472
H       -1.0056750541   -0.5570284269   -2.8209108431
H        1.8806607885   -1.7764100990    5.2182659970
H        0.6888291241   -2.9577141098    4.9104904360
22   
Generated by ForceBalance from scan.xyz: Frame 16 of 24
C        1.0488565058    0.1380345081    1.7772713398
C        1.3348682975   -0.2871274767    3.0631711376
C       -0.2413263024   -1.8582983929    1.4809558158
C        0.1990463884   -0.6352822009    0.9673348575
C        0.8100971299   -1.5274110105    3.4967314948
C       -0.0047486809   -0.2726629684   -0.4617148384
C       -3.1189427739   -0.0040308365   -2.3496928960
C       -1.6122112544    0.0610756461   -2.1814457785
N        0.0512499934   -2.3054955778    2.7073987464
N        1.0241495545   -1.9846775712    4.7862623675
O        0.8924154860    0.0340984937   -1.2278738252
O       -1.3168573402   -0.2504332481   -0.7940203887
H        1.4689549705    1.0635033526    1.3932277891
H        1.9592035937    0.3074464553    3.7246876587
H       -0.8596859203   -2.5144999819    0.8706489649
H       -3.4961860350   -1.0040602546   -2.1161336683
H       -3.6168527317    0.7152597266   -1.6928690900
H       -3.3847265683    0.2321522254   -3.3852025471
H       -1.2146756851    1.0547888234   -2.4062826557
H       -1.0940024267   -0.6590871859   -2.8212253065
H        1.8619695848   -1.6611533481    5.2525209366
H        0.8308071068   -2.9722670911    4.9070270996
22   
Generated by ForceBalance from scan.xyz: Frame 17 of 24
C        0.9037192253    0.1415674737    1.7728716882
C        1.1856317949   -0.2311424392    3.0774209429
C       -0.0633470008   -2.0225867372    1.4406204368
C        0.2302133155   -0.7567217183    0.9295665054
C        0.8259767792   -1.5309017372    3.5009454423
C        0.0181855116   -0.4319643699   -0.5132616789
C       -3.1070803877    0.1668100580   -2.3040308159
C       -1.5987868435    0.0463837822   -2.1900313260
N        0.2246986932   -2.4133831633    2.6877034823
N        1.0402944431   -1.9453541161    4.8074625264
O        0.9153258920   -0.2841924546   -1.3232728599
O       -1.2915957585   -0.2625097393   -0.8031659484
H        1.1968591317    1.1215902176    1.4058019925
H        1.6795067728    0.4542672172    3.7609057868
H       -0.5520600423   -2.7662942891    0.8128606562
H       -3.5968270653   -0.7708675720   -2.0254137119
H       -3.4860461940    0.9610195057   -1.6541721170
H       -3.3804397689    0.4058086589   -3.3369187760
H       -1.0888585510    0.9756214888   -2.4594725855
H       -1.1986196612   -0.7506546934   -2.8230538459
H        1.8143354896   -1.5133751939    5.2960982181
H        0.9866592479   -2.9509059302    4.9247381299
22   
Generated by ForceBalance from scan.xyz: Frame 18 of 24
C        1.8704629497   -1.0558398272    1.4635634771
C        1.9055106017   -1.4222952119    2.8006771572
C       -0.4276202342   -0.4569318086    1.7632339515
C        0.6792649060   -0.5541807350    0.9186741430
C        0.7278878055   -1.2866940395    3.5690252964
C        0.5766777320   -0.1911350387   -0.5302623473
C        1.1283746160    3.0466175074   -2.1249134609
C        0.7832867212    1.5691465020   -2.1151302905
N       -0.4176429617   -0.8146523067    3.0530133311
N        0.7149540422   -1.5893774467    4.9244853261
O        0.2837173754   -0.9670394868   -1.4207515602
O        0.8566540800    1.1151211875   -0.7354215450
H        2.7590626303   -1.1572807244    0.8457609133
H        2.8180343533   -1.8016300504    3.2525269140
H       -1.3763059946   -0.0803112248    1.3833863828
H        0.4242102123    3.6166392881   -1.5118616736
H        2.1379988704    3.2154511170   -1.7390726981
H        1.0819062712    3.4285337401   -3.1499356124
H        1.4812355706    0.9771554301   -2.7138867158
H       -0.2257183168    1.3780465900   -2.4911102315
H        1.3627092361   -2.3049812707    5.2295404041
H       -0.2204908312   -1.6959347712    5.3007341367
22   
Generated by ForceBalance from scan.xyz: Frame 19 of 24
C        1.8402139647   -0.8782648009    1.4538583074
C        1.9219545653   -1.2303081664    2.7924168524
C       -0.5318109574   -0.6945817808    1.7202511634
C        0.5834173303   -0.6268231743    0.8823913284
C        0.7288038373   -1.2957130519    3.5465498792
C        0.4279530177   -0.2069253365   -0.5431636826
C        1.3211938611    2.9755263875   -2.0958808474
C        0.7614510049    1.5652010959   -2.0933389140
N       -0.4741070366   -1.0236514508    3.0158185593
N        0.7513063960   -1.5892038343    4.9028984394
O       -0.0787316949   -0.8849240701   -1.4181422361
O        0.8701408438    1.0577059963   -0.7354799978
H        2.7427835265   -0.8024667997    0.8529996313
H        2.8811688472   -1.4356768282    3.2598566663
H       -1.5246913953   -0.4842322405    1.3256523307
H        0.7601839223    3.6195776757   -1.4124628280
H        2.3720167569    2.9806881863   -1.7915040527
H        1.2515353027    3.3975258729   -3.1037295648
H        1.3150249114    0.8991884118   -2.7614052599
H       -0.2905772080    1.5381854088   -2.3906188419
H        1.5084404278   -2.1796289392    5.2231939155
H       -0.1568550956   -1.8457253379    5.2733532592
22   
Generated by ForceBalance from scan.xyz: Frame 20 of 24
C        1.7892216170   -0.7003180965    1.4730681099
C        1.9022575549   -1.0703616717    2.8033696257
C       -0.5892947616   -0.8794986882    1.6986412205
C        0.5174284715   -0.6358951096    0.8800778777
C        0.7193395596   -1.3282961467    3.5338203888
C        0.3085903666   -0.1751313028   -0.5198624688
C        1.4672652660    2.8999375595   -2.1151462928
C        0.7340900245    1.5719108009   -2.0755337484
N       -0.5037919560   -1.2203060967    2.9887231835
N        0.7642858960   -1.6491001566    4.8811025860
O       -0.3596384366   -0.7608812823   -1.3535048742
O        0.8854334558    1.0326570432   -0.7354153218
H        2.6768708852   -0.4679362824    0.8910448064
H        2.8734757196   -1.1417022880    3.2855135009
H       -1.5942530349   -0.8045460738    1.2868684827
H        1.0509150097    3.5978534305   -1.3828683186
H        2.5316937788    2.7668172748   -1.8997795037
H        1.3698500405    3.3450722188   -3.1106776377
H        1.1419751316    0.8532365227   -2.7921962333
H       -0.3332157347    1.6842694611   -2.2856680353
H        1.5984331681   -2.1182466774    5.2097949316
H       -0.1017900747   -2.0389810799    5.2351788274
22   
Generated by ForceBalance from scan.xyz: Frame 21 of 24
C        1.7357946583   -0.5190008945    1.5223761348
C        1.8739758807   -0.9280953510    2.8379568514
C       -0.6040215088   -1.0165972568    1.6898840026
C        0.4745989913   -0.5936371087    0.9053716016
C        0.7229580772   -1.3699936115    3.5316568487
C        0.2222119582   -0.1070340706   -0.4731639744
C        1.5970044960    2.8226249532   -2.1691996278
C        0.7290990228    1.5817702628   -2.0681961960
N       -0.4962028275   -1.3985036045    2.9657981034
N        0.7879172051   -1.7419037210    4.8631645388
O       -0.5627350240   -0.6158468897   -1.2556761974
O        0.9107795313    1.0325145146   -0.7372618374
H        2.5926275948   -0.1482138045    0.9674288922
H        2.8380199610   -0.8944683858    3.3383190683
H       -1.6016336570   -1.0519501540    1.2564870341
H        1.3083824859    3.5633231231   -1.4176302203
H        2.6530920150    2.5757239669   -2.0241985575
H        1.4816786716    3.2735554713   -3.1602008683
H        1.0081409342    0.8222268087   -2.8042584525
H       -0.3313130947    1.8092057853   -2.2085282424
H        1.6724988501   -2.1029726395    5.1961704178
H       -0.0251878621   -2.2539985699    5.1856603964
22   
Generated by ForceBalance from scan.xyz: Frame 22 of 24
C        1.6484810089   -0.3455066379    1.5850735179
C        1.8138020263   -0.8083951644    2.8790262625
C       -0.6212828974   -1.1200765861    1.6771712395
C        0.4094846399   -0.5214933605    0.9421840378
C        0.7123110995   -1.4204834474    3.5227088519
C        0.1242175379   -0.0144305033   -0.4194987748
C        1.6852392097    2.7461481874   -2.2337702129
C        0.7050240888    1.5998291581   -2.0650224146
N       -0.4870263639   -1.5623964789    2.9301444485
N        0.8006560248   -1.8575092524    4.8312697816
O       -0.7448420809   -0.4511431308   -1.1566372716
O        0.9096549085    1.0460076127   -0.7403671538
H        2.4648869817    0.1462872880    1.0652863563
H        2.7606052871   -0.6942215965    3.4000744264
H       -1.5994690267   -1.2476021523    1.2183294618
H        1.5167461413    3.5188888184   -1.4778552355
H        2.7180415437    2.3952856221   -2.1465562657
H        1.5576789401    3.1977674240   -3.2229575510
H        0.8629806451    0.8103069433   -2.8054328445
H       -0.3335988218    1.9320586022   -2.1474432352
H        1.7170971626   -2.1188592685    5.1708663431
H        0.0497803101   -2.4780286215    5.1111230801
22   
Generated by ForceBalance from scan.xyz: Frame 23 of 24
C        1.5676312354   -0.1765273881    1.6564736189
C        1.7621452757   -0.6903592182    2.9266428631
C       -0.5992082524   -1.2089588484    1.6487747392
C        0.3638432242   -0.4439896050    0.9778080641
C        0.7275390672   -1.4628563273    3.5057671814
C        0.0539847695    0.0828503483   -0.3696158097
C        1.7751212566    2.6602994746   -2.3044377477
C        0.6960192743    1.6201765430   -2.0652348050
N       -0.4348304507   -1.7117061772    2.8746252667
N        0.8411103841   -1.9630276542    4.7882419023
O       -0.8850295985   -0.2786603960   -1.0610954967
O        0.9238579662    1.0542501583   -0.7502381252
H        2.3338410338    0.4276402159    1.1815904913
H        2.6804415599   -0.5007386258    3.4760578511
H       -1.5453626312   -1.4228523030    1.1567059429
H        1.7307364723    3.4509449152   -1.5494486555
H        2.7704329930    2.2066602000   -2.2736689151
H        1.6354134856    3.1166997460   -3.2897787416
H        0.7289797675    0.8155130501   -2.8053175368
H       -0.3068375578    2.0557202026   -2.0898181935
H        1.7741010193   -2.1261660705    5.1434538209
H        0.1636111089   -2.6815342469    5.0156875427
22   
Generated by ForceBalance from scan.xyz: Frame 24 of 24
C        1.4807265129   -0.0248305565    1.7471629042
C        1.7021439542   -0.5839908100    2.9934440244
C       -0.5636639466   -1.2795330523    1.6309494331
C        0.3186513867   -0.3706600347    1.0317943418
C        0.7469103428   -1.4949265649    3.5039744515
C       -0.0082311842    0.1732589423   -0.3043571887
C        1.8482129672    2.5525390662   -2.3643410974
C        0.6917985850    1.6188348094   -2.0568376233
N       -0.3662841060   -1.8358475983    2.8283168128
N        0.8881144147   -2.0499896866    4.7603076539
O       -1.0078446322   -0.1101306874   -0.9456483797
O        0.9388522230    1.0383068120   -0.7519098377
H        2.1910361591    0.6758269859    1.3207466324
H        2.5839601995   -0.3292156487    3.5752678493
H       -1.4692674601   -1.5676231496    1.1020185374
H        1.9171923745    3.3494990861   -1.6177856895
H        2.7974726677    2.0085270177   -2.3800543681
H        1.6991869184    3.0129340948   -3.3464577841
H        0.6094725717    0.8116338123   -2.7902443692
H       -0.2661505088    2.1458104966   -2.0311938223
H        1.8246873982   -2.1260105507    5.1347227550
H        0.2892539956   -2.8490977947    4.9325862852
