28   
Generated by ForceBalance from scan.xyz: Frame 1 of 24
C       -1.1230453009   -3.4087439702    1.7445361807
C       -1.3908737453   -2.2295096130    1.0369369791
C       -1.2781500218   -3.4678461354    3.1225057067
C       -1.9823457422   -1.1367133236    3.1357390371
C       -1.8179908432   -1.1108448447    1.7482245127
C       -1.7005275248   -2.3287409899    3.8281291255
C       -3.2003442779   -0.1095756177   -0.0422384425
C       -0.8429332507    0.6004914749    0.2531621715
C       -2.5557929121    1.2961780767    1.8426484964
C       -2.5373155488   -1.4766728371    5.9121545824
N       -2.1025358250    0.1547203426    0.9684917919
O       -1.8155722345   -2.4651865276    5.1673263236
H       -0.7963354269   -4.2896676686    1.2008335843
H       -1.2631549078   -2.2218555228   -0.0397124637
H       -1.0772120215   -4.3784631829    3.6778122340
H       -2.3088037702   -0.2711667310    3.6921317001
H       -3.4096226633    0.8157034639   -0.5802653669
H       -2.8741369422   -0.8784486317   -0.7378862292
H       -4.0846849779   -0.4504622705    0.4949428518
H       -1.0558754990    1.5248125239   -0.2850559551
H       -0.0647823828    0.7599788027    0.9987233934
H       -0.5303245044   -0.1724090787   -0.4442739371
H       -2.7359680178    2.1584830633    1.2016030818
H       -3.4789131791    1.0208676993    2.3499081546
H       -1.7746531361    1.5350159243    2.5623823141
H       -2.6160467516   -1.8716961914    6.9240586637
H       -3.5400787165   -1.3304772502    5.4951298530
H       -1.9933930740   -0.5253121717    5.9401861888
28   
Generated by ForceBalance from scan.xyz: Frame 2 of 24
C       -1.1306828331   -3.4024686877    1.7541728220
C       -1.4083813229   -2.2310152010    1.0398510140
C       -1.2398230758   -3.4384539726    3.1391191657
C       -1.9113296384   -1.0987847897    3.1387000734
C       -1.7970742968   -1.0942915901    1.7472831438
C       -1.6160697273   -2.2824389602    3.8398045005
C       -3.2243846249   -0.1006056654   -0.0121826759
C       -0.8488770726    0.5796898551    0.1946286970
C       -2.4983915906    1.3234141978    1.8292147668
C       -2.6179538949   -1.5556661254    5.8973412354
N       -2.0902729206    0.1629126958    0.9577556425
O       -1.6802899072   -2.3795531952    5.1881844701
H       -0.8383934888   -4.2966342308    1.2124300432
H       -1.3207668099   -2.2417351363   -0.0408238941
H       -1.0336064661   -4.3437235595    3.7011275451
H       -2.2033317507   -0.2222207108    3.6983530859
H       -3.4379011308    0.8192150084   -0.5578148527
H       -2.9323755592   -0.8848646435   -0.7058840808
H       -4.0954912644   -0.4197501974    0.5589154721
H       -1.0667024974    1.4987880753   -0.3505001954
H       -0.0443641941    0.7391558888    0.9116704166
H       -0.5703376730   -0.2080388360   -0.5007039753
H       -2.6892679412    2.1783571046    1.1814451264
H       -3.4069516636    1.0680996941    2.3719812279
H       -1.6900231761    1.5623663264    2.5181828686
H       -2.6811783224   -1.9775085987    6.8997984594
H       -3.6020007971   -1.5900810246    5.4175613314
H       -2.2658668352   -0.5201693809    5.9692464624
28   
Generated by ForceBalance from scan.xyz: Frame 3 of 24
C       -1.1534796248   -3.3753905736    1.8267944064
C       -1.4332563355   -2.2214245981    1.0881647735
C       -1.2280863691   -3.3719522461    3.2167900724
C       -1.8635822835   -1.0239366401    3.1639425148
C       -1.7874018990   -1.0571413539    1.7718330619
C       -1.5690285326   -2.1920807651    3.8904927196
C       -3.2348685844   -0.0867450434    0.0155971957
C       -0.8444584764    0.5575679334    0.1550860357
C       -2.4467368297    1.3726373586    1.8033280682
C       -2.7050635042   -1.6177146581    5.9230907925
N       -2.0764980676    0.1828368660    0.9545630277
O       -1.5902382325   -2.2266771773    5.2476686481
H       -0.8870195104   -4.2877149790    1.3022546056
H       -1.3724477069   -2.2636201614    0.0063206435
H       -1.0182887393   -4.2634994426    3.7990977344
H       -2.1228393093   -0.1293076703    3.7123157227
H       -3.4429609837    0.8212256958   -0.5514978764
H       -2.9714863698   -0.8952485938   -0.6615710898
H       -4.0997347189   -0.3733571652    0.6128483135
H       -1.0579162648    1.4659589397   -0.4093466887
H       -0.0223026356    0.7212614299    0.8508501196
H       -0.5944872792   -0.2527607167   -0.5250526262
H       -2.6397010958    2.2127283097    1.1370135363
H       -3.3461064423    1.1460581185    2.3734966268
H       -1.6191971316    1.6172631061    2.4670529455
H       -2.6574422521   -1.9737116320    6.9518421178
H       -3.6485037076   -1.9307385278    5.4641578005
H       -2.6286832973   -0.5244436493    5.9227927123
28   
Generated by ForceBalance from scan.xyz: Frame 4 of 24
C       -1.1961064409   -3.3517064791    1.8437691451
C       -1.4784199150   -2.2084726418    1.0930292702
C       -1.2327058833   -3.3231149506    3.2376143463
C       -1.8327315501   -0.9667672358    3.1565166587
C       -1.7936818065   -1.0241956617    1.7653199408
C       -1.5463688295   -2.1294673147    3.8946241579
C       -3.2519815812   -0.0490929251    0.0213566735
C       -0.8451809406    0.5417833085    0.1049009105
C       -2.3962116713    1.4189761661    1.7710934947
C       -2.7435732967   -1.7748766340    5.9320248772
N       -2.0697699048    0.2082950370    0.9335716980
O       -1.5151420312   -2.1066638872    5.2566688217
H       -0.9511968746   -4.2753160602    1.3285681966
H       -1.4446459074   -2.2693862168    0.0107316037
H       -1.0120342746   -4.2059366427    3.8293227001
H       -2.0489207967   -0.0588515363    3.7031180973
H       -3.4492837175    0.8540591177   -0.5571153125
H       -3.0208415444   -0.8746159085   -0.6470843561
H       -4.1118558779   -0.3047950615    0.6394836493
H       -1.0486671134    1.4459402743   -0.4698909194
H       -0.0061649015    0.6972961466    0.7821863823
H       -0.6271491579   -0.2847137099   -0.5668236784
H       -2.5851884934    2.2526416595    1.0956491884
H       -3.2876741253    1.2204922506    2.3637199865
H       -1.5497684160    1.6556726619    2.4134781135
H       -2.5293038249   -1.8586125335    6.9970703521
H       -3.5324995683   -2.4812318252    5.6532233709
H       -3.0642366567   -0.7509194565    5.7087304292
28   
Generated by ForceBalance from scan.xyz: Frame 5 of 24
C       -1.2301312043   -3.3237226680    1.9382784799
C       -1.4993141513   -2.1988256657    1.1563841398
C       -1.2494427463   -3.2477785770    3.3318459213
C       -1.8115800861   -0.8868446809    3.1794608896
C       -1.7862629090   -0.9859851558    1.7906365464
C       -1.5392184787   -2.0295605704    3.9512769797
C       -3.2314965839   -0.0357018418    0.0218311601
C       -0.8135402889    0.5108672112    0.0815992627
C       -2.3422114021    1.4660026920    1.7261298277
C       -2.7732171573   -1.8843717110    5.9775146942
N       -2.0417325781    0.2254687728    0.9229057545
O       -1.4946389466   -1.9328707248    5.3126598124
H       -1.0021366221   -4.2658719812    1.4494861941
H       -1.4727522124   -2.2941142294    0.0763022221
H       -1.0298563157   -4.1138707987    3.9484214030
H       -2.0056262281    0.0370413899    3.7083714120
H       -3.4126959434    0.8534793726   -0.5829126648
H       -3.0188650260   -0.8850896548   -0.6224433350
H       -4.0944468542   -0.2556065195    0.6493755021
H       -1.0013484712    1.4015560985   -0.5189770604
H        0.0303979960    0.6700289787    0.7518922638
H       -0.6136486249   -0.3391014054   -0.5661438923
H       -2.5193104337    2.2828232221    1.0272976285
H       -3.2339987973    1.3008555675    2.3284037137
H       -1.4886802337    1.7056154929    2.3579164177
H       -2.5558716695   -1.7981487907    7.0418566654
H       -3.3389703318   -2.8024273731    5.7850588826
H       -3.3563820860   -1.0155018286    5.6498393898
28   
Generated by ForceBalance from scan.xyz: Frame 6 of 24
C       -1.2799886473   -3.2923511081    2.0006060741
C       -1.5276849337   -2.1814229762    1.1915817711
C       -1.2938534868   -3.1816277001    3.3918222127
C       -1.8186960986   -0.8166007205    3.1822613472
C       -1.7918973053   -0.9486064368    1.7958542157
C       -1.5659869661   -1.9439685138    3.9807991242
C       -3.2185381187   -0.0148195807    0.0035925932
C       -0.7913387631    0.4893326178    0.0532148858
C       -2.3034279827    1.5103799674    1.6735377568
C       -2.7627981807   -2.0394334469    6.0266710147
N       -2.0250240313    0.2460234997    0.8995965343
O       -1.5191379949   -1.7920247840    5.3379172084
H       -1.0649191233   -4.2488648039    1.5343691748
H       -1.4996720443   -2.3028353680    0.1140960488
H       -1.0811145854   -4.0366651921    4.0262769184
H       -2.0021334588    0.1186509663    3.6948601314
H       -3.3832229595    0.8629953033   -0.6221087840
H       -3.0206798279   -0.8828549510   -0.6202809114
H       -4.0858179935   -0.2042447427    0.6350913215
H       -0.9626802272    1.3687566655   -0.5685123192
H        0.0548212185    0.6493024439    0.7205090937
H       -0.6063398809   -0.3792127627   -0.5740453834
H       -2.4636591323    2.3139249758    0.9555048093
H       -3.1991331081    1.3760218265    2.2775994408
H       -1.4467773053    1.7479685074    2.3018190201
H       -2.5534432339   -1.8988757646    7.0868651589
H       -3.1073925069   -3.0639086040    5.8481014796
H       -3.5325369176   -1.3291688336    5.7022020466
28   
Generated by ForceBalance from scan.xyz: Frame 7 of 24
C       -1.3412234116   -3.2582797506    2.0490374379
C       -1.5588773355   -2.1595831482    1.2139880620
C       -1.3678975096   -3.1204357092    3.4367867581
C       -1.8543889814   -0.7520959387    3.1725693488
C       -1.8083864341   -0.9106816335    1.7894388654
C       -1.6335388073   -1.8665757742    3.9974688559
C       -3.1989740005    0.0132351877   -0.0364758478
C       -0.7645995974    0.4792970935    0.0333123430
C       -2.2787171208    1.5529977080    1.6173443559
C       -2.7134014181   -2.1861199672    6.0924959503
N       -2.0118956738    0.2707726371    0.8689778874
O       -1.5938694927   -1.6622975293    5.3464029108
H       -1.1326102439   -4.2266379782    1.6048074649
H       -1.5172895479   -2.3037984172    0.1398649313
H       -1.1692765637   -3.9686155011    4.0848220295
H       -2.0348180392    0.1935276014    3.6666731217
H       -3.3421298730    0.8823976944   -0.6793264969
H       -3.0082004955   -0.8687491877   -0.6426737664
H       -4.0764920691   -0.1509691392    0.5879029944
H       -0.9144680855    1.3500913016   -0.6058758879
H        0.0761042941    0.6378388137    0.7077986696
H       -0.5860907642   -0.4030659292   -0.5762469872
H       -2.4162812223    2.3463308334    0.8834227579
H       -3.1839582644    1.4440366288    2.2122195483
H       -1.4261807681    1.7868878935    2.2525880327
H       -2.5002785988   -1.9752976972    7.1401149334
H       -2.8139503134   -3.2668063849    5.9471173386
H       -3.6394634489   -1.6840942770    5.7906944536
28   
Generated by ForceBalance from scan.xyz: Frame 8 of 24
C       -1.4074924272   -3.2306937007    2.0915237628
C       -1.5879201356   -2.1450185779    1.2312665959
C       -1.4606402504   -3.0695493715    3.4758832386
C       -1.9039974360   -0.7002484092    3.1607049941
C       -1.8289512102   -0.8836994275    1.7829065669
C       -1.7216761206   -1.8028995460    4.0124484544
C       -3.1728308204    0.0285499300   -0.0823808095
C       -0.7335594399    0.4597134169    0.0229466970
C       -2.2588729992    1.5840508939    1.5603639471
C       -2.6348501302   -2.2916607585    6.1663206080
N       -1.9983227229    0.2848269537    0.8395336377
O       -1.7050754783   -1.5477753766    5.3498593786
H       -1.2043186012   -4.2103568423    1.6701006781
H       -1.5264597514   -2.3086271097    0.1609602391
H       -1.2896651197   -3.9159457999    4.1332056510
H       -2.0847624735    0.2549995164    3.6353773505
H       -3.2920172186    0.8883971116   -0.7424345531
H       -2.9840961339   -0.8666100426   -0.6696330485
H       -4.0634283823   -0.1123115475    0.5290468172
H       -0.8589461732    1.3209069095   -0.6342638209
H        0.0973368915    0.6180471706    0.7095231516
H       -0.5576228356   -0.4361362902   -0.5673791079
H       -2.3695311120    2.3663107312    0.8101793534
H       -3.1769426898    1.4998995851    2.1393278772
H       -1.4150872549    1.8154785490    2.2080508030
H       -2.5005452458   -1.9187455778    7.1811933299
H       -2.4206069902   -3.3645055245    6.1426780169
H       -3.6612865708   -2.1083476067    5.8322348958
28   
Generated by ForceBalance from scan.xyz: Frame 9 of 24
C       -1.4892955184   -3.1998990072    2.1000167255
C       -1.6275897148   -2.1180270795    1.2284321969
C       -1.5722616241   -3.0316720460    3.4825211661
C       -1.9612140165   -0.6556280829    3.1421025122
C       -1.8581237433   -0.8491520859    1.7692427987
C       -1.8240514439   -1.7571800132    4.0067457838
C       -3.1512104368    0.0740353178   -0.1253396789
C       -0.7071935345    0.4635956340    0.0220691469
C       -2.2404559938    1.6249659494    1.5234164280
C       -2.5413471949   -2.3861024061    6.2040512721
N       -1.9894441436    0.3164204240    0.8162514796
O       -1.8388871963   -1.4740499819    5.3336237625
H       -1.2969966659   -4.1866354197    1.6901051933
H       -1.5463550127   -2.2895808653    0.1608298763
H       -1.4415493964   -3.8826430826    4.1423674035
H       -2.1368254574    0.3052478148    3.6070534479
H       -3.2437693680    0.9314868835   -0.7927519726
H       -2.9670631169   -0.8281445157   -0.7032099060
H       -4.0549153585   -0.0477868210    0.4707550337
H       -0.8056446981    1.3219955907   -0.6433233735
H        0.1135119697    0.6127134580    0.7228223909
H       -0.5358277283   -0.4394213046   -0.5585419525
H       -2.3221672833    2.4039130858    0.7661030475
H       -3.1710374290    1.5613579479    2.0847155249
H       -1.4054451155    1.8454668773    2.1861037373
H       -2.6400032982   -1.8657932538    7.1562078515
H       -1.9725427912   -3.3086499078    6.3552366912
H       -3.5310017434   -2.6155807054    5.7974684008
28   
Generated by ForceBalance from scan.xyz: Frame 10 of 24
C       -1.5602459142   -3.1905359292    2.1018087517
C       -1.6624263998   -2.1078782425    1.2275106299
C       -1.6754658820   -3.0240838807    3.4827903479
C       -2.0193975938   -0.6410569772    3.1341846431
C       -1.8889789694   -0.8361093704    1.7654356877
C       -1.9184801744   -1.7456166967    4.0027807346
C       -3.1334507275    0.1023499228   -0.1533044766
C       -0.6885124910    0.4641067925    0.0424817210
C       -2.2379509916    1.6426441125    1.5135056413
C       -2.4447886011   -2.4770814688    6.2236217775
N       -1.9877456601    0.3314714403    0.8110764937
O       -1.9832285523   -1.4522977486    5.3219128956
H       -1.3749501849   -4.1804344019    1.6962748415
H       -1.5599374728   -2.2802718269    0.1620070252
H       -1.5781846494   -3.8810203931    4.1397753305
H       -2.1943513842    0.3219416293    3.5949716755
H       -3.2035699980    0.9612368228   -0.8216119685
H       -2.9478999402   -0.8014674807   -0.7281049109
H       -4.0498457634   -0.0100444886    0.4250003582
H       -0.7642435989    1.3233087646   -0.6248408137
H        0.1196875658    0.6044086336    0.7594035608
H       -0.5155774633   -0.4409643530   -0.5343915631
H       -2.2946958479    2.4226864177    0.7550380252
H       -3.1806944806    1.5898230878    2.0552935854
H       -1.4143341990    1.8530782100    2.1934909741
H       -2.6561236118   -1.9669811091    7.1626249164
H       -1.6705855365   -3.2329632561    6.3887921805
H       -3.3556857473   -2.9457963346    5.8386406098
28   
Generated by ForceBalance from scan.xyz: Frame 11 of 24
C       -1.6164939632   -3.1955126961    2.1103941775
C       -1.6841570692   -2.1116923122    1.2355373453
C       -1.7728674071   -3.0341364921    3.4887380592
C       -2.0825531913   -0.6464621181    3.1360086051
C       -1.9172180449   -0.8395930378    1.7719695049
C       -2.0137183604   -1.7542093881    4.0060312149
C       -3.1087214978    0.1106466932   -0.1734461651
C       -0.6669129147    0.4563173970    0.0811461602
C       -2.2432733110    1.6421673928    1.5171872791
C       -2.3654781506   -2.5349970392    6.2446871920
N       -1.9847469093    0.3307364823    0.8183820467
O       -2.1471552835   -1.4576085478    5.3171285905
H       -1.4314523553   -4.1867636498    1.7080564276
H       -1.5537349363   -2.2823198636    0.1728662929
H       -1.7075721089   -3.8973536740    4.1404725053
H       -2.2641156668    0.3167168796    3.5938619331
H       -3.1581408034    0.9716239905   -0.8409267385
H       -2.9147275539   -0.7928623907   -0.7459404989
H       -4.0390748577    0.0020092692    0.3828614645
H       -0.7216851843    1.3166534272   -0.5867586015
H        0.1248230539    0.5911139716    0.8172394530
H       -0.4855764665   -0.4491016189   -0.4925435421
H       -2.2756624360    2.4241058980    0.7592373940
H       -3.1996053563    1.5948987896    2.0351373340
H       -1.4354178754    1.8454032490    2.2179603409
H       -2.5782546501   -2.0575790320    7.2000816414
H       -1.4696326822   -3.1570117514    6.3393384467
H       -3.2201313542   -3.1446027783    5.9343896422
28   
Generated by ForceBalance from scan.xyz: Frame 12 of 24
C       -1.6642798581   -3.2019592943    2.1044749253
C       -1.7001025163   -2.1146924124    1.2327551338
C       -1.8635475271   -3.0458314467    3.4783151297
C       -2.1449446836   -0.6545874827    3.1259177712
C       -1.9431712927   -0.8429391933    1.7666652675
C       -2.1054691113   -1.7657621687    3.9945295316
C       -3.0808690126    0.1185497082   -0.2045250743
C       -0.6444190874    0.4517629135    0.1109335336
C       -2.2498140340    1.6415958234    1.5108623863
C       -2.2912678287   -2.5468856567    6.2531544156
N       -1.9804771229    0.3306602437    0.8152639030
O       -2.3139821005   -1.4742703206    5.2963241555
H       -1.4767655648   -4.1933574969    1.7036176962
H       -1.5401161957   -2.2819245420    0.1736360338
H       -1.8284864446   -3.9139904486    4.1253567601
H       -2.3355143232    0.3076042400    3.5821370324
H       -3.1111427684    0.9824109568   -0.8694218881
H       -2.8760191824   -0.7833960121   -0.7757202521
H       -4.0247312294    0.0108452445    0.3287246307
H       -0.6782080919    1.3150623136   -0.5545277110
H        0.1298653858    0.5792178081    0.8666241557
H       -0.4540532550   -0.4522323517   -0.4620262379
H       -2.2595246436    2.4255597165    0.7543801577
H       -3.2189554382    1.5979064888    2.0047122230
H       -1.4586024745    1.8389523644    2.2320236377
H       -2.4810956838   -2.0788020408    7.2178015408
H       -1.3114063409   -3.0349793017    6.2664163850
H       -3.0773579285   -3.2774520291    6.0366543463
28   
Generated by ForceBalance from scan.xyz: Frame 13 of 24
C       -1.7120278269   -3.2085775788    2.0980446046
C       -1.7164898632   -2.1161289110    1.2313517299
C       -1.9537624741   -3.0588501905    3.4653309624
C       -2.2078125940   -0.6635844866    3.1197892983
C       -1.9696276344   -0.8467761764    1.7651883821
C       -2.1969232109   -1.7792429158    3.9823234609
C       -3.0535308609    0.1298189029   -0.2280499923
C       -0.6241006221    0.4505217976    0.1484596231
C       -2.2579244547    1.6401422801    1.5153006626
C       -2.2229278683   -2.5154905536    6.2631412450
N       -1.9773499303    0.3317312768    0.8193463184
O       -2.4789151094   -1.5029611651    5.2741803259
H       -1.5218923188   -4.1991387715    1.6963843599
H       -1.5270864980   -2.2786987160    0.1763205593
H       -1.9495563530   -3.9304150707    4.1091659336
H       -2.4076633314    0.2971006851    3.5752575885
H       -3.0627071711    0.9964029576   -0.8900329247
H       -2.8396495298   -0.7711338380   -0.7975431941
H       -4.0107893522    0.0253417785    0.2814488518
H       -0.6385316387    1.3162762033   -0.5145000113
H        0.1319603446    0.5725967084    0.9232539054
H       -0.4228113805   -0.4520003393   -0.4230725664
H       -2.2447422799    2.4283185914    0.7632578586
H       -3.2394239517    1.5985646315    1.9842871285
H       -1.4842574623    1.8295593510    2.2573495515
H       -2.3898401738   -2.0318184046    7.2244847076
H       -1.1881726753   -2.8666478758    6.1975128299
H       -2.9167173070   -3.3549437035    6.1519156957
28   
Generated by ForceBalance from scan.xyz: Frame 14 of 24
C       -1.7634765951   -3.2183582990    2.0755074800
C       -1.7356258349   -2.1179130366    1.2180517180
C       -2.0456010101   -3.0747441645    3.4348721534
C       -2.2676401973   -0.6750416925    3.1020546297
C       -1.9951770461   -0.8506585205    1.7517025232
C       -2.2871027453   -1.7960693103    3.9550570762
C       -3.0258585763    0.1443601735   -0.2602336273
C       -0.6039475352    0.4483462399    0.1743486447
C       -2.2620052031    1.6393323852    1.5104172479
C       -2.1591736605   -2.4380405889    6.2606337663
N       -1.9729140670    0.3334802650    0.8130221505
O       -2.6342820481   -1.5413844637    5.2376096284
H       -1.5730859655   -4.2075586126    1.6706304531
H       -1.5189939529   -2.2746933012    0.1673319958
H       -2.0741604705   -3.9488954980    4.0755569498
H       -2.4743782527    0.2836078411    3.5587274326
H       -3.0153822052    1.0153561409   -0.9163881248
H       -2.8034992053   -0.7539486244   -0.8307075686
H       -3.9950810240    0.0415248049    0.2264710975
H       -0.5983691788    1.3175894407   -0.4841522448
H        0.1346567978    0.5623395542    0.9670136629
H       -0.3941890062   -0.4521584363   -0.3973182997
H       -2.2255028171    2.4321318991    0.7640288906
H       -3.2548750258    1.6012832572    1.9551292747
H       -1.5054608121    1.8189604701    2.2722989235
H       -2.3320007996   -1.9226731877    7.2046247371
H       -1.0905652897   -2.6359731073    6.1320379502
H       -2.7219188818   -3.3768071117    6.2526420505
28   
Generated by ForceBalance from scan.xyz: Frame 15 of 24
C       -1.8266389766   -3.2459779835    2.0562520043
C       -1.7656252071   -2.1368093757    1.2105236089
C       -2.1396273068   -3.1093229128    3.4089745697
C       -2.3199426285   -0.7047670093    3.0957410453
C       -2.0214246434   -0.8714437993    1.7481630064
C       -2.3729590518   -1.8323578824    3.9357171544
C       -3.0032340635    0.1495006730   -0.2752318899
C       -0.5869419984    0.4247525711    0.2068081396
C       -2.2574275469    1.6227670866    1.5211388396
C       -2.0883889235   -2.3243197690    6.2628082022
N       -1.9686533032    0.3193070317    0.8190010886
O       -2.7658749587   -1.6010026029    5.2136419108
H       -1.6425168560   -4.2338048922    1.6452169499
H       -1.5289165879   -2.2870221569    0.1630423812
H       -2.2016130897   -3.9867136456    4.0437762355
H       -2.5265445426    0.2518240840    3.5567525123
H       -2.9718599370    1.0256087019   -0.9238769002
H       -2.7790282669   -0.7463391332   -0.8489247303
H       -3.9823836230    0.0524605810    0.1924190021
H       -0.5602910889    1.2984582475   -0.4452325201
H        0.1379085798    0.5257272158    1.0138070176
H       -0.3756073528   -0.4737586953   -0.3674683142
H       -2.1976462148    2.4209786524    0.7820557443
H       -3.2592394977    1.5921017240    1.9459272730
H       -1.5142259570    1.7881871183    2.2991922331
H       -2.3727635950   -1.8298025501    7.1910530510
H       -1.0042022328   -2.2695090071    6.1252530120
H       -2.4117526525   -3.3691577629    6.2978990192
28   
Generated by ForceBalance from scan.xyz: Frame 16 of 24
C       -1.8921301973   -3.2971222790    2.0280858705
C       -1.7958094632   -2.1734409550    1.2039004032
C       -2.2315175699   -3.1755338407    3.3754349398
C       -2.3658864530   -0.7639187848    3.1007681422
C       -2.0426375342   -0.9130222945    1.7551062003
C       -2.4573943328   -1.9042232781    3.9168385003
C       -2.9777035963    0.1531781991   -0.2675431545
C       -0.5653780621    0.3857652016    0.2556177222
C       -2.2387715017    1.5867203220    1.5636617729
C       -2.0163458989   -2.2081232421    6.2460337570
N       -1.9577282694    0.2905699001    0.8450145779
O       -2.8747812945   -1.7087651438    5.1980917960
H       -1.7170558921   -4.2805440379    1.6028250514
H       -1.5420572434   -2.3104731701    0.1584687467
H       -2.3314501380   -4.0591799430    3.9974306757
H       -2.5687128744    0.1881849352    3.5728473884
H       -2.9241227158    1.0390792305   -0.9012707339
H       -2.7571311131   -0.7363571881   -0.8523979835
H       -3.9652328377    0.0625211936    0.1834705502
H       -0.5165055181    1.2688302888   -0.3823644456
H        0.1484079331    0.4641880688    1.0748912575
H       -0.3576364119   -0.5065915510   -0.3294772368
H       -2.1547683466    2.3958955356    0.8390024922
H       -3.2479019546    1.5644300479    1.9713317325
H       -1.5062712784    1.7281352075    2.3564916509
H       -2.4938138339   -1.9191111492    7.1817509343
H       -1.0251719880   -1.7486918659    6.1733035272
H       -1.9263796175   -3.2979731427    6.2061079714
28   
Generated by ForceBalance from scan.xyz: Frame 17 of 24
C       -1.9320157547   -3.3439495804    1.9710668689
C       -1.8087804329   -2.1998375685    1.1789791246
C       -2.2938295322   -3.2497179207    3.3149712922
C       -2.3996498771   -0.8306027969    3.0987874327
C       -2.0514813996   -0.9499645695    1.7553776416
C       -2.5195207815   -1.9904976451    3.8808915385
C       -2.9491685891    0.1738925418   -0.2536045582
C       -0.5414498264    0.3693606088    0.3059775922
C       -2.2198377180    1.5544424777    1.6218982944
C       -1.9575464547   -2.0836853232    6.1901578570
N       -1.9422939331    0.2736407129    0.8750336937
O       -2.9503291854   -1.8497178619    5.1683705962
H       -1.7586050128   -4.3177793765    1.5236655539
H       -1.5385757509   -2.3135063280    0.1347719202
H       -2.4178485334   -4.1415811629    3.9215824028
H       -2.6059089056    0.1121583031    3.5882815235
H       -2.8789722547    1.0746198426   -0.8644011361
H       -2.7295120743   -0.7030169733   -0.8575821877
H       -3.9432810834    0.0817947037    0.1824038722
H       -0.4760448246    1.2667704038   -0.3101087130
H        0.1623637593    0.4215183259    1.1359025874
H       -0.3341812182   -0.5105670303   -0.2977691838
H       -2.1156108573    2.3807033561    0.9194995533
H       -3.2353852517    1.5337437246    2.0134471678
H       -1.4980545989    1.6671740594    2.4290814477
H       -2.4723282263   -1.9587004734    7.1424021105
H       -1.1451233908   -1.3533011569    6.1053886600
H       -1.5516440468   -3.0984119975    6.1210654386
28   
Generated by ForceBalance from scan.xyz: Frame 18 of 24
C       -1.9723096093   -3.3870591329    1.9110915193
C       -1.8325979805   -2.2233470823    1.1519397515
C       -2.3366448570   -3.3244415708    3.2569252480
C       -2.4200413053   -0.8991116917    3.1041743328
C       -2.0633590472   -0.9859318306    1.7604894756
C       -2.5573096815   -2.0796751034    3.8524353681
C       -2.9394375374    0.1955745586   -0.2250332548
C       -0.5329349928    0.3526021765    0.3512882564
C       -2.2060171282    1.5234359440    1.6863234881
C       -1.9295129433   -1.9253673601    6.1347905755
N       -1.9376808062    0.2578668937    0.9108209076
O       -2.9808122413   -1.9917601238    5.1485638292
H       -1.8033667987   -4.3499100038    1.4389477823
H       -1.5570954007   -2.3110677375    0.1065214833
H       -2.4677181157   -4.2264986141    3.8468381995
H       -2.6244745621    0.0333238526    3.6139641926
H       -2.8567135672    1.1098644649   -0.8136929035
H       -2.7254091163   -0.6688747220   -0.8487015552
H       -3.9367663854    0.1032814542    0.2035404293
H       -0.4550063504    1.2637178674   -0.2428308849
H        0.1670096265    0.3774528364    1.1857381172
H       -0.3317905341   -0.5148620901   -0.2723208714
H       -2.0895086038    2.3649874448    1.0043075284
H       -3.2238752391    1.5044828983    2.0718704200
H       -1.4872819417    1.6097618422    2.4994669524
H       -2.4270648917   -1.8812276852    7.1033415611
H       -1.3187857617   -1.0264639948    5.9890801222
H       -1.2933880333   -2.8158146252    6.0835421537
28   
Generated by ForceBalance from scan.xyz: Frame 19 of 24
C       -1.9893621000   -3.4233523617    1.8270825698
C       -1.8380232249   -2.2400029654    1.1020698676
C       -2.3434588787   -3.3964045892    3.1770664854
C       -2.4047282194   -0.9666439005    3.0949061839
C       -2.0513709392   -1.0186009432    1.7489879246
C       -2.5513227317   -2.1682888401    3.8093680492
C       -2.9198666934    0.2292395664   -0.1992543020
C       -0.5100656139    0.3425191109    0.3738719221
C       -2.1657511930    1.4939603777    1.7463754042
C       -1.9522253683   -1.7768328373    6.0758012044
N       -1.9143380679    0.2478910924    0.9348364257
O       -2.9623879545   -2.1360835724    5.1113326394
H       -1.8296571482   -4.3738668308    1.3275552671
H       -1.5645733544   -2.2993383124    0.0541554450
H       -2.4750067616   -4.3118478421    3.7455456729
H       -2.6017009272   -0.0443650355    3.6255450619
H       -2.8285925563    1.1590778889   -0.7617032371
H       -2.7171830704   -0.6192776182   -0.8480437564
H       -3.9169564856    0.1355525357    0.2295661850
H       -0.4233078120    1.2691867847   -0.1944195240
H        0.1923888284    0.3356002698    1.2065532204
H       -0.3206167447   -0.5091439040   -0.2746456412
H       -2.0404936900    2.3531754998    1.0883661730
H       -3.1830958223    1.4766270898    2.1333861244
H       -1.4442084367    1.5486730672    2.5597985438
H       -2.4458499555   -1.7886986632    7.0472375223
H       -1.5552378095   -0.7741601960    5.8773506747
H       -1.1352618917   -2.5064349011    6.0630813292
28   
Generated by ForceBalance from scan.xyz: Frame 20 of 24
C       -1.9946408522   -3.4636494072    1.7392199416
C       -1.8469967227   -2.2607288864    1.0454071714
C       -2.3157684539   -3.4729392947    3.0963782485
C       -2.3599435413   -1.0415928160    3.0885447673
C       -2.0341509375   -1.0589401429    1.7344346787
C       -2.5033457880   -2.2630155555    3.7713898309
C       -2.9182678380    0.2577905600   -0.1614850662
C       -0.4988778808    0.3276597308    0.3779482307
C       -2.1208998174    1.4545059671    1.8091636787
C       -1.9897721169   -1.6756701126    6.0300815234
N       -1.8957569806    0.2309522107    0.9571550213
O       -2.8780610648   -2.2966847914    5.0811397366
H       -1.8500963135   -4.4009096012    1.2108561544
H       -1.5923740438   -2.2908188643   -0.0083487250
H       -2.4353641757   -4.4025455148    3.6437820624
H       -2.5350812048   -0.1281380356    3.6405846215
H       -2.8246998615    1.2032363336   -0.6969000312
H       -2.7353002494   -0.5727213296   -0.8386758841
H       -3.9098539884    0.1620431945    0.2794642158
H       -0.4099464526    1.2706145572   -0.1625799599
H        0.2156958896    0.2869152449    1.1992711469
H       -0.3288857545   -0.5054969008   -0.2992835349
H       -1.9971136117    2.3318047977    1.1751639859
H       -3.1322168508    1.4361013445    2.2117387540
H       -1.3856908323    1.4779009882    2.6118122402
H       -2.4348075133   -1.8467768761    7.0098211629
H       -1.9031651782   -0.5968419052    5.8574716221
H       -0.9995702671   -2.1408614957    5.9833176122
28   
Generated by ForceBalance from scan.xyz: Frame 21 of 24
C       -2.0242840460   -3.4961882205    1.7130813125
C       -1.8846289757   -2.2844247975    1.0296659284
C       -2.3022610046   -3.5206166977    3.0770044435
C       -2.3179400111   -1.0880738556    3.1060645266
C       -2.0330547844   -1.0924643261    1.7410630122
C       -2.4644325774   -2.3171626130    3.7749980825
C       -2.9356678392    0.2701154521   -0.1133577040
C       -0.5036065588    0.2863750928    0.3698520184
C       -2.0698848209    1.4223908394    1.8542110403
C       -2.0646135512   -1.5340920448    6.0063895600
N       -1.8882266279    0.2072361486    0.9804030317
O       -2.7740385458   -2.3920377665    5.0949211991
H       -1.9007659902   -4.4279331360    1.1698602671
H       -1.6598060211   -2.3031475507   -0.0309821545
H       -2.4071484951   -4.4557085201    3.6178589882
H       -2.4502324725   -0.1763269094    3.6713373724
H       -2.8363847829    1.2215560286   -0.6370197800
H       -2.7844722123   -0.5534810148   -0.8065686306
H       -3.9183954502    0.1863811454    0.3493112617
H       -0.4085963528    1.2361248059   -0.1576561320
H        0.2289224253    0.2182509890    1.1733495809
H       -0.3660930413   -0.5390397480   -0.3239765953
H       -1.9464033153    2.3062176928    1.2292599091
H       -3.0710221346    1.4161434975    2.2818728096
H       -1.3143027065    1.4221020676    2.6380395223
H       -2.2735743723   -1.9242799384    7.0020613802
H       -2.4227977089   -0.4999706418    5.9488193835
H       -0.9882772489   -1.5728118571    5.8096755140
28   
Generated by ForceBalance from scan.xyz: Frame 22 of 24
C       -2.0217120976   -3.5235554981    1.6456384500
C       -1.8945075408   -2.2979448994    0.9814711543
C       -2.2556325309   -3.5765695241    3.0145884768
C       -2.2481368022   -1.1438188531    3.0993906204
C       -2.0089840520   -1.1235593593    1.7241405720
C       -2.3851129192   -2.3861761787    3.7457860674
C       -2.9479843228    0.2910364648   -0.0728242116
C       -0.5034054028    0.2703524176    0.3421520684
C       -2.0149735260    1.3892192363    1.8943079088
C       -2.1553548494   -1.4889906912    5.9612564612
N       -1.8713837548    0.1920365658    0.9893770640
O       -2.6347892484   -2.5077757933    5.0705737124
H       -1.9231058375   -4.4446596483    1.0797336663
H       -1.7041878156   -2.2954930953   -0.0859916488
H       -2.3483470295   -4.5225371140    3.5384955618
H       -2.3466591665   -0.2403829598    3.6832672816
H       -2.8520960481    1.2527700526   -0.5780228735
H       -2.8259943026   -0.5185309113   -0.7878881321
H       -3.9183591540    0.2079271320    0.4153194354
H       -0.4115355394    1.2316186097   -0.1647092941
H        0.2502495443    0.1739501903    1.1228847909
H       -0.3954117597   -0.5395389101   -0.3747662947
H       -1.9017757816    2.2854520306    1.2852765384
H       -3.0029226799    1.3825865953    2.3516352719
H       -1.2361904662    1.3651911185    2.6546921986
H       -2.2369906941   -1.9110661506    6.9622739269
H       -2.7736785361   -0.5856860708    5.9051294826
H       -1.1091879174   -1.2477002829    5.7444897872
28   
Generated by ForceBalance from scan.xyz: Frame 23 of 24
C       -1.1276959835   -3.4102154157    1.7437982752
C       -1.3681206001   -2.2223684541    1.0407728191
C       -1.3837054448   -3.5010471184    3.1048867744
C       -2.1428380247   -1.1871934703    3.1088804944
C       -1.8726765818   -1.1280273330    1.7390640831
C       -1.9016072123   -2.3919661424    3.7945147123
C       -3.1384641822   -0.1213852609   -0.1315952336
C       -0.8281639259    0.6364104274    0.3553352222
C       -2.6726889739    1.2594371007    1.8230249358
C       -2.3475169360   -1.4169600546    5.9439194373
N       -2.1267157160    0.1471264728    0.9644250931
O       -2.1339788503   -2.5652743669    5.1140886356
H       -0.7277984169   -4.2681302811    1.2123435915
H       -1.1515724021   -2.1868068442   -0.0210118301
H       -1.1961392128   -4.4158650798    3.6579625878
H       -2.5381245123   -0.3432870949    3.6537543183
H       -3.3289313519    0.8098124433   -0.6663705188
H       -2.7420428110   -0.8681675904   -0.8147292914
H       -4.0521780264   -0.4934769786    0.3304594740
H       -1.0222877775    1.5666444844   -0.1798235840
H       -0.1125163390    0.7982160056    1.1606256681
H       -0.4450943466   -0.1143593567   -0.3310451248
H       -2.8241685361    2.1307513839    1.1867556716
H       -3.6249157699    0.9528722702    2.2525857520
H       -1.9546382884    1.5005588550    2.6050252171
H       -2.3664727917   -1.7931810463    6.9658251914
H       -3.3082367582   -0.9387107951    5.7202638948
H       -1.5282954082   -0.6978698591    5.8316565106
28   
Generated by ForceBalance from scan.xyz: Frame 24 of 24
C       -1.1242073206   -3.4125765505    1.7419346408
C       -1.3790641445   -2.2276892865    1.0380601996
C       -1.3292239897   -3.4887016148    3.1118575595
C       -2.0614390396   -1.1660984378    3.1249944738
C       -1.8447156153   -1.1221015878    1.7445998090
C       -1.7997012902   -2.3650697318    3.8131675084
C       -3.1703348195   -0.1165266116   -0.0855383664
C       -0.8346216581    0.6181592027    0.3063538688
C       -2.6146335738    1.2755708713    1.8370385958
C       -2.4482781107   -1.4277025171    5.9270504387
N       -2.1145549270    0.1493221657    0.9687278630
O       -1.9717204554   -2.5263529011    5.1425885107
H       -0.7607883800   -4.2815055526    1.2022333104
H       -1.2074862917   -2.2052158219   -0.0322314673
H       -1.1344593471   -4.4020237675    3.6649158677
H       -2.4214154245   -0.3108510002    3.6760023217
H       -3.3702856190    0.8122004497   -0.6211648381
H       -2.8089698900   -0.8738281280   -0.7764651058
H       -4.0700382211   -0.4736661263    0.4142710776
H       -1.0383437327    1.5461852103   -0.2290802576
H       -0.0869332981    0.7780204469    1.0823863353
H       -0.4867127736   -0.1427993501   -0.3874750678
H       -2.7816638594    2.1424719083    1.1986348221
H       -3.5525168261    0.9835336322    2.3064154780
H       -1.8639841934    1.5162901812    2.5879213010
H       -2.5038536445   -1.8000318988    6.9489107047
H       -3.4464894936   -1.1145292448    5.5998604531
H       -1.7503955830   -0.5834400479    5.8854258945
