28   
Generated by ForceBalance from scan.xyz: Frame 1 of 24
C        0.4679285300   -0.6227603438    0.7436054048
C        1.8078528121   -0.6226947099    2.7538783468
C       -0.4209815288   -1.4398215171    1.4399236853
C        1.6221788270   -0.2060896178    1.4295253572
C        0.8380967846   -1.4461586180    3.3549398617
C        2.5416631930    1.3497162050   -0.3136649518
C        3.1591022810   -3.0016010815    4.8844771531
C        3.8169993584    2.7814429439   -1.8324609978
C        2.1831485748   -1.9366095085    5.4058361132
N       -0.2655200738   -1.8600682254    2.7008123978
N        2.6266909988    0.5889175008    0.8544296633
N        0.9251800462   -1.8557750388    4.6751908405
N        3.6989272218    2.0757108427   -0.5586563711
O        1.5564978911    1.4017944768   -1.0401866180
H        0.2730139398   -0.3128477385   -0.2723092612
H        2.6868311711   -0.3057247514    3.3080175307
H       -1.3251764630   -1.7847821448    0.9396578262
H        2.7141175481   -3.9999591258    4.9524063821
H        3.4167790520   -2.8205328255    3.8366265016
H        4.0843252804   -2.9992478313    5.4720988264
H        3.9317988369    2.0979615608   -2.6830498416
H        4.6803518561    3.4494726495   -1.7834258589
H        2.9174596895    3.3763621902   -1.9927701375
H        2.6589724944   -0.9500180058    5.4001926204
H        1.9335589142   -2.1394043698    6.4520393044
H        3.3858926416    0.8248073245    1.4812375761
H        0.2443064368   -2.5795164779    4.8775576928
H        4.5599106682    1.6889299652   -0.1913995479
28   
Generated by ForceBalance from scan.xyz: Frame 2 of 24
C        0.5161616800   -0.7379666588    0.7013912887
C        1.8457800548   -0.6822888721    2.7168525041
C       -0.4017131094   -1.4939499846    1.4272371747
C        1.6790610576   -0.3265143959    1.3741917208
C        0.8510559430   -1.4536136371    3.3482836829
C        2.5425079235    1.3245800171   -0.2913446363
C        3.1191069722   -3.0078466189    4.9541569314
C        3.7404407077    2.8683003421   -1.7628220560
C        2.1738982751   -1.8929722925    5.4253220931
N       -0.2608510604   -1.8627866394    2.7065522167
N        2.7091045009    0.4021673444    0.7503801193
N        0.9213315588   -1.8057410942    4.6859420291
N        3.7128596638    2.0107826240   -0.5801997436
O        1.4875180552    1.5235004084   -0.8797011142
H        0.3331151329   -0.4666235372   -0.3283013367
H        2.7276351681   -0.3590379848    3.2625525532
H       -1.3146339290   -1.8334447167    0.9393993338
H        2.6436652877   -3.9886094063    5.0609267310
H        3.3867982698   -2.8783508686    3.9011671669
H        4.0414360402   -3.0088730794    5.5462896428
H        3.7166923605    2.2953040627   -2.6982218859
H        4.6469574801    3.4776702693   -1.7324475502
H        2.8708414024    3.5257354374   -1.7439467199
H        2.6793434223   -0.9222781929    5.3802915170
H        1.9145616028   -2.0436202583    6.4779204360
H        3.5101928792    0.5735378815    1.3463587622
H        0.2165274489   -2.4966928002    4.9186110857
H        4.5780814369    1.5290875544   -0.3672823032
28   
Generated by ForceBalance from scan.xyz: Frame 3 of 24
C        0.5553512269   -0.8382501983    0.6391439494
C        1.8829325983   -0.7186011725    2.6522781884
C       -0.3898794152   -1.5245613765    1.3975454554
C        1.7294480956   -0.4339187158    1.2933428363
C        0.8642509927   -1.4305877330    3.3176183996
C        2.5587648019    1.3083934822   -0.2672740521
C        3.0797564973   -2.9771970416    4.9997995854
C        3.6992554439    2.9638159439   -1.6604374457
C        2.1717090751   -1.8106431253    5.4154522753
N       -0.2587970123   -1.8348270117    2.6937487633
N        2.7722742274    0.2347851032    0.6148291870
N        0.9223765934   -1.7186394490    4.6708530655
N        3.7375143589    1.9567275269   -0.6024905363
O        1.4615473709    1.6457377818   -0.6901299682
H        0.3851911716   -0.6144441790   -0.4052181609
H        2.7705045431   -0.3879873323    3.1838463541
H       -1.3140075527   -1.8574622192    0.9268304698
H        2.5727628247   -3.9357445552    5.1530667921
H        3.3511480122   -2.9071731712    3.9421040086
H        4.0018748365   -2.9796652607    5.5922250957
H        3.5264128369    2.5259051750   -2.6514956944
H        4.6480798116    3.5058235547   -1.6626283496
H        2.8909889489    3.6654751655   -1.4524936129
H        2.7086063284   -0.8604010289    5.3240382027
H        1.9077330023   -1.9014409343    6.4737167598
H        3.6202240337    0.3159946641    1.1646447039
H        0.1949406786   -2.3733448112    4.9364039215
H        4.5806220845    1.3968987535   -0.5585357717
28   
Generated by ForceBalance from scan.xyz: Frame 4 of 24
C        0.5616856978   -0.9569166324    0.5759665340
C        1.9010309967   -0.7631807416    2.5742460232
C       -0.3992956966   -1.5786586808    1.3692272362
C        1.7473551595   -0.5520259527    1.2042493583
C        0.8686197457   -1.4186056840    3.2786732214
C        2.5702421007    1.2799415452   -0.2227051088
C        3.0575969776   -2.9226538210    5.0342642061
C        3.6832391558    3.0292192842   -1.5199435663
C        2.1753727580   -1.7172816655    5.3901745219
N       -0.2657406347   -1.8263958674    2.6787798594
N        2.7884408705    0.0702180149    0.4675185184
N        0.9259555286   -1.6384605979    4.6441221021
N        3.7544044504    1.8807804672   -0.6193971117
O        1.4648578387    1.7520901824   -0.4462602347
H        0.3979288165   -0.7842273703   -0.4803264592
H        2.7961604199   -0.4199158986    3.0842061086
H       -1.3346297180   -1.9115613968    0.9213976424
H        2.5310537339   -3.8611303230    5.2376074746
H        3.3280289041   -2.9130973924    3.9740327707
H        3.9808973077   -2.9137129628    5.6247380164
H        3.3568542759    2.7516847123   -2.5300518431
H        4.6699180838    3.4960132957   -1.5719144628
H        2.9708138811    3.7503125152   -1.1182087448
H        2.7315256880   -0.7845614451    5.2481993386
H        1.9125862327   -1.7472550869    6.4521639150
H        3.6809456286    0.0428065986    0.9494644549
H        0.1832375165   -2.2585206784    4.9476097101
H        4.5394039694    1.2565571501   -0.7623431655
28   
Generated by ForceBalance from scan.xyz: Frame 5 of 24
C        0.5404075753   -1.0794976480    0.5107537398
C        1.8981526019   -0.7972738112    2.4848402037
C       -0.4209818040   -1.6530527701    1.3403122482
C        1.7326972583   -0.6562168187    1.1090759700
C        0.8659278646   -1.4090133772    3.2297296830
C        2.5931459078    1.2544325785   -0.1578673477
C        3.0618692405   -2.8302147908    5.0467120684
C        3.7159154810    3.0729463598   -1.3465214365
C        2.1860974824   -1.6046600256    5.3445868336
N       -0.2760464468   -1.8367194439    2.6585853750
N        2.7611165356   -0.0629611355    0.3177267821
N        0.9323477857   -1.5613944029    4.6029810934
N        3.7764396982    1.8012095769   -0.6295994008
O        1.5254406835    1.8498281953   -0.1541432222
H        0.3755446559   -0.9603048998   -0.5537176310
H        2.7989146221   -0.4312359736    2.9676782322
H       -1.3634019182   -1.9997874108    0.9186980354
H        2.5333980197   -3.7548848796    5.3017143365
H        3.3260181267   -2.8767362860    3.9858458112
H        3.9888225799   -2.7938569230    5.6302909776
H        3.2385762578    2.9792042312   -2.3300555026
H        4.7322616962    3.4549838216   -1.4705761942
H        3.1392616096    3.7850040205   -0.7554103594
H        2.7440492703   -0.6826568194    5.1500962941
H        1.9298327514   -1.5780144025    6.4082049276
H        3.6886124667   -0.2261227032    0.6971120988
H        0.1864832395   -2.1567494530    4.9454463922
H        4.4603824389    1.1358604120   -0.9701905559
28   
Generated by ForceBalance from scan.xyz: Frame 6 of 24
C        0.6273701263   -0.1962975308    1.1667057001
C        2.0053871883   -1.0046913722    2.9719043773
C       -0.4585989225   -0.7818660503    1.8196347263
C        1.8851414095   -0.3161558144    1.7719534761
C        0.8354230172   -1.5258307610    3.5683491299
C        3.5043047638    1.4842449949    1.4516047490
C        1.7521619229   -3.3482367819    6.7343652406
C        5.1411085984    3.2096820876    0.8764157929
C        2.0784941391   -2.6273823103    5.4286322329
N       -0.3776243003   -1.4305425148    2.9851072906
N        3.0654639928    0.1842349940    1.1289164509
N        0.8573433225   -2.1619674928    4.7890476060
N        4.4347013627    1.9740346522    0.5478512965
O        3.1095927296    2.1115236423    2.4248281346
H        0.4962353507    0.3409110425    0.2321329369
H        2.9802458896   -1.1133974675    3.4316422157
H       -1.4538522325   -0.7226666436    1.3805450622
H        1.2169047374   -2.6851785513    7.4212970271
H        1.1294630537   -4.2319243665    6.5529183162
H        2.6710243683   -3.6827431635    7.2245854682
H        5.6626441820    3.5652188098   -0.0158468244
H        5.8630862800    3.0781051000    1.6923984347
H        4.4133839276    3.9608221686    1.1847711891
H        2.6468881450   -3.2960105258    4.7623168278
H        2.7210083851   -1.7645022988    5.6407469542
H        3.0599449889    0.0105289395    0.1282600109
H        0.0051950047   -2.6747074614    4.9836464204
H        4.9765810820    1.2739324070    0.0553485857
28   
Generated by ForceBalance from scan.xyz: Frame 7 of 24
C        0.5391684174   -0.2765538111    1.0967668156
C        1.9567527633   -0.9690294463    2.9204584720
C       -0.5128980338   -0.9119376352    1.7582234338
C        1.8011662162   -0.3078811424    1.7073716408
C        0.8155484732   -1.5383525970    3.5249469425
C        3.5331914831    1.4177456655    1.5299793817
C        1.8271866800   -3.2208044462    6.7391190228
C        5.2344780859    3.1087461205    1.0453582490
C        2.1139842043   -2.5156416072    5.4157103285
N       -0.4007692376   -1.5275965611    2.9383323671
N        2.9407176801    0.2340024663    1.0422431480
N        0.8694005411   -2.1424367286    4.7610056754
N        4.3797058704    2.0086853580    0.6059845862
O        3.3271399925    1.8715721524    2.6470200900
H        0.3778689812    0.2286116238    0.1486264355
H        2.9319703102   -1.0112250836    3.3888757234
H       -1.5070858511   -0.9209226796    1.3126967760
H        1.2491786447   -2.5742314443    7.4068997561
H        1.2610078779   -4.1458375240    6.5797167391
H        2.7629422809   -3.4847041906    7.2403993778
H        5.6633467650    3.5946578312    0.1654053206
H        6.0432605655    2.7743001921    1.7074323374
H        4.6267908515    3.8323452056    1.5893369594
H        2.7248564544   -3.1654468486    4.7685941424
H        2.7014639629   -1.6096832964    5.6061403976
H        2.8232969392    0.2431505449    0.0337888405
H        0.0499836040   -2.7029548662    4.9640256062
H        4.7812749590    1.3863343432   -0.0852077789
28   
Generated by ForceBalance from scan.xyz: Frame 8 of 24
C        0.4713541626   -0.3434893146    1.0556062537
C        1.9129780036   -0.9090753273    2.9054198279
C       -0.5424952262   -1.0376087746    1.7157791415
C        1.7281229464   -0.2774749971    1.6784722847
C        0.8051227920   -1.5464394534    3.5025354446
C        3.5601899455    1.3718349675    1.5844927197
C        1.8931151068   -3.1246123180    6.7448389023
C        5.3242758244    3.0113288576    1.1500445729
C        2.1463420655   -2.4151263464    5.4168618229
N       -0.4044515951   -1.6270534151    2.9063877932
N        2.8182313554    0.3262327203    1.0002068882
N        0.8859693375   -2.1284593648    4.7482674854
N        4.3380278052    2.0510011873    0.6613553338
O        3.5264607062    1.6526606446    2.7749034115
H        0.2856199308    0.1303730041    0.0954711509
H        2.8780724474   -0.8732087898    3.3924579977
H       -1.5281149694   -1.1191936967    1.2586419434
H        1.2694465948   -2.5098370171    7.4015228997
H        1.3879216202   -4.0851329262    6.5900569900
H        2.8392427568   -3.3240653207    7.2563643780
H        5.6853982374    3.6046552230    0.3064162535
H        6.1747684426    2.5253101049    1.6446856827
H        4.8445966492    3.6744605168    1.8703649514
H        2.8029134857   -3.0308862923    4.7813398202
H        2.6733227057   -1.4719094980    5.6025007553
H        2.6228839883    0.4772066856    0.0161159427
H        0.1048228833   -2.7424914843    4.9474767121
H        4.5994678132    1.5321840071   -0.1684422621
28   
Generated by ForceBalance from scan.xyz: Frame 9 of 24
C        0.4201288130   -0.3965263228    1.0150217169
C        1.8602262694   -0.8568226282    2.8969772057
C       -0.5572816328   -1.1543969267    1.6569298806
C        1.6596854852   -0.2433736935    1.6615431610
C        0.7856180052   -1.5701352745    3.4688064699
C        3.5764139408    1.3372725814    1.6168140359
C        1.9176413918   -3.0657182306    6.7351676688
C        5.4020716433    2.9143627552    1.2062581248
C        2.1470181208   -2.3430501318    5.4099901262
N       -0.4049185779   -1.7333776793    2.8514707461
N        2.6975685216    0.4393113205    0.9897807519
N        0.8825751116   -2.1434927542    4.7174945516
N        4.3024149710    2.0915639696    0.7088633261
O        3.6930360107    1.4524967562    2.8303080106
H        0.2218858423    0.0578553236    0.0477472121
H        2.8048851569   -0.7494802909    3.4097921799
H       -1.5257350011   -1.3008807404    1.1796477609
H        1.2421289064   -2.4932569068    7.3787547470
H        1.4811148494   -4.0583693761    6.5741730861
H        2.8655613855   -3.2000910508    7.2643345774
H        5.7135177453    3.6002998264    0.4146814279
H        6.2627953696    2.3151465862    1.5292264422
H        5.0508263296    3.4943795835    2.0599692028
H        2.8552180548   -2.9139286607    4.7883213847
H        2.6060952818   -1.3663525880    5.6021670827
H        2.4524434110    0.6960900093    0.0403275102
H        0.1405690278   -2.8077761037    4.9045962509
H        4.4368335385    1.6829234888   -0.2081471585
28   
Generated by ForceBalance from scan.xyz: Frame 10 of 24
C        0.3966052549   -0.4356282168    0.9986079376
C        1.8155276883   -0.7976095634    2.9201593653
C       -0.5452133280   -1.2551274144    1.6146145646
C        1.6090289585   -0.2016345031    1.6760170939
C        0.7762012846   -1.5874368806    3.4568211083
C        3.5901652084    1.3264748517    1.6419768468
C        1.9289921379   -3.0334041006    6.7382066159
C        5.4696811913    2.8333503180    1.2110375933
C        2.1410577198   -2.2853576942    5.4243080630
N       -0.3855106463   -1.8285525123    2.8114586041
N        2.5926174293    0.5650569257    1.0227223059
N        0.8811412589   -2.1583157587    4.7061516585
N        4.2741511564    2.1344411711    0.7464752164
O        3.8370234637    1.3026992466    2.8423113801
H        0.1948221747    0.0021198619    0.0242492609
H        2.7332250923   -0.6243290096    3.4610133596
H       -1.4896668524   -1.4618548492    1.1121574418
H        1.2056826713   -2.5101947778    7.3717550159
H        1.5585355136   -4.0496654940    6.5597158170
H        2.8720522599   -3.1137693437    7.2866656298
H        5.7504723025    3.5815380517    0.4657564119
H        6.3143080677    2.1539883027    1.3820760030
H        5.2417033522    3.3372510463    2.1505687715
H        2.8962361516   -2.8047171432    4.8131339809
H        2.5347230472   -1.2841848198    5.6342896559
H        2.3087012845    0.8933722803    0.1075750641
H        0.1796520248   -2.8706741931    4.8718251660
H        4.2927203795    1.8242303375   -0.2175028809
28   
Generated by ForceBalance from scan.xyz: Frame 11 of 24
C        0.3889139159   -0.4635080499    0.9922881248
C        1.7735756259   -0.7429224278    2.9521056432
C       -0.5180183028   -1.3386176065    1.5816652793
C        1.5688127765   -0.1593987912    1.7013250210
C        0.7727323706   -1.6026390827    3.4549186694
C        3.5984746632    1.3207409861    1.6622644134
C        1.9349319486   -3.0171861061    6.7471740916
C        5.5247970502    2.7579167399    1.2011896728
C        2.1319805033   -2.2388682247    5.4486324617
N       -0.3554909960   -1.9098300619    2.7797212612
N        2.4999233728    0.6890252265    1.0790854668
N        0.8826698660   -2.1749123052    4.7033060833
N        4.2530973785    2.1726142959    0.7843867055
O        3.9506899530    1.1689387371    2.8274108089
H        0.1884736330   -0.0386140510    0.0119470016
H        2.6641568785   -0.5162936144    3.5170392284
H       -1.4351585046   -1.5981954617    1.0537809635
H        1.1682871139   -2.5465546988    7.3710061617
H        1.6287889145   -4.0506119853    6.5466617454
H        2.8686823232   -3.0504199775    7.3160505270
H        5.7905822628    3.5533998532    0.5007233750
H        6.3356099767    2.0195149177    1.2394189856
H        5.4074051442    3.1869400763    2.1965826273
H        2.9292909547   -2.7038682151    4.8476611979
H        2.4622992321   -1.2199470765    5.6811170155
H        2.1893096345    1.0673835218    0.1931492505
H        0.2200743266   -2.9281248233    4.8471205907
H        4.1721997040    1.9565487127   -0.2017320516
28   
Generated by ForceBalance from scan.xyz: Frame 12 of 24
C        0.2846415301   -0.6109962522    1.2265384629
C        1.7459053416   -0.6656352486    3.1496727543
C       -0.5692552732   -1.4583016109    1.9251392002
C        1.4776287742   -0.2056383727    1.8597330711
C        0.7953994345   -1.5102920658    3.7633887434
C        3.5536105185    1.1813487262    1.5476188038
C        2.1511824475   -2.6239900741    7.0951893989
C        5.2977104193    2.7961072376    0.9693094815
C        2.2597853691   -1.9418854826    5.7337180348
N       -0.3445151454   -1.9131114779    3.1625274585
N        2.3323546179    0.6473009906    1.1446106712
N        0.9729886269   -1.9685363550    5.0511041846
N        4.0970056049    2.0465139621    0.6082267091
O        4.1220428579    0.9018233111    2.5987125853
H        0.0331265860   -0.2800291070    0.2220706045
H        2.6585409929   -0.3786617148    3.6479340909
H       -1.4941682648   -1.7944566751    1.4574453919
H        1.3988167238   -2.1311021171    7.7193010808
H        1.8720917936   -3.6787657633    6.9882756791
H        3.1113260435   -2.5845128719    7.6178454830
H        5.1023509394    3.5641074693    1.7281725303
H        5.6988484350    3.2681451286    0.0691281537
H        6.0408285050    2.1049348701    1.3679586613
H        3.0402260335   -2.4287453356    5.1284338991
H        2.5696300334   -0.8996710424    5.8722567322
H        2.0452957755    0.8347591118    0.1927292585
H        0.3473008707   -2.7322259744    5.2806813341
H        3.4429850242    2.5319824342    0.0064314797
28   
Generated by ForceBalance from scan.xyz: Frame 13 of 24
C        0.2925934835   -0.6211699234    1.2306525336
C        1.7060130424   -0.6001169340    3.1894138518
C       -0.5246718252   -1.5246828226    1.9025770244
C        1.4436035133   -0.1506908926    1.8947635725
C        0.7999894259   -1.5134341018    3.7708238708
C        3.5376679819    1.1952452106    1.5531291080
C        2.1625596154   -2.6130111859    7.1037560496
C        5.3427662689    2.7263474106    0.9358959069
C        2.2501593484   -1.8887483382    5.7627154792
N       -0.2991627397   -1.9788996357    3.1398863560
N        2.2471882048    0.7836244313    1.2204185362
N        0.9785868856   -1.9772156093    5.0566473189
N        4.0725964479    2.0758033111    0.6238743090
O        4.1567436609    0.8149235999    2.5414500087
H        0.0460487074   -0.2987472087    0.2221809273
H        2.5884092075   -0.2650132016    3.7118240644
H       -1.4168074770   -1.9115045579    1.4110040299
H        1.3726798092   -2.1834838614    7.7283867694
H        1.9492553571   -3.6792593902    6.9642199700
H        3.1106999531   -2.5305318384    7.6430280322
H        5.2516338243    3.4603934764    1.7463303395
H        5.7116615300    3.2230843365    0.0352534489
H        6.0637510292    1.9680894756    1.2425979688
H        3.0689870733   -2.3090167004    5.1586175466
H        2.4919281169   -0.8333880300    5.9345102152
H        1.9446013671    0.9878635595    0.2763855804
H        0.3949896299   -2.7799471351    5.2627016036
H        3.4118122020    2.6344384887    0.0975673110
28   
Generated by ForceBalance from scan.xyz: Frame 14 of 24
C        0.3030407710   -0.6411629237    1.2318589302
C        1.6515268300   -0.5496540702    3.2326608950
C       -0.4762062024   -1.5998016357    1.8734794438
C        1.4028080678   -0.1093907868    1.9327980847
C        0.7952005751   -1.5296254152    3.7784809191
C        3.5070859064    1.1880795560    1.5517690173
C        2.1584951550   -2.6173185227    7.1136531464
C        5.3613203575    2.6423122456    0.8942979062
C        2.2212931188   -1.8498025726    5.7955342059
N       -0.2547826438   -2.0543798396    3.1111154946
N        2.1592159259    0.9012134611    1.3095236296
N        0.9699621578   -1.9992705213    5.0631537142
N        4.0275803289    2.1003575473    0.6465338745
O        4.1719727611    0.6874083156    2.4515861390
H        0.0678546310   -0.3264000673    0.2183135800
H        2.4948810780   -0.1644388211    3.7850143130
H       -1.3294630507   -2.0352220288    1.3543464561
H        1.3313643625   -2.2590993282    7.7350828323
H        2.0187033242   -3.6906452313    6.9398867076
H        3.0896402484   -2.4886410440    7.6731147715
H        5.3858214326    3.3215144494    1.7557482560
H        5.6937317961    3.1763956954    0.0008528640
H        6.0479439619    1.8183408356    1.0902601028
H        3.0753777005   -2.1979705950    5.1947648284
H        2.3910848933   -0.7865503145    6.0024979342
H        1.8291196525    1.1426839431    0.3829250875
H        0.4329903700   -2.8400339081    5.2427446085
H        3.3666867762    2.7375288465    0.2186798499
28   
Generated by ForceBalance from scan.xyz: Frame 15 of 24
C        0.3543530062   -0.6441952191    1.2289034184
C        1.6265589891   -0.5000580513    3.2753408510
C       -0.3877579658   -1.6564502610    1.8338487433
C        1.3961255201   -0.0615861114    1.9726628773
C        0.8197743802   -1.5412473010    3.7801021428
C        3.5038644462    1.1767440502    1.5262554785
C        2.1482767048   -2.6177787691    7.1321913704
C        5.3888926647    2.5717302681    0.8286363169
C        2.2012152809   -1.8156078534    5.8344059026
N       -0.1754967207   -2.1157808554    3.0707745909
N        2.1134109574    1.0176253101    1.4112109434
N        0.9814787797   -2.0211156728    5.0629244641
N        3.9988420649    2.1503309911    0.6735008773
O        4.2112560464    0.5291186741    2.2877760384
H        0.1374008186   -0.3315721903    0.2107901754
H        2.4240105668   -0.0675221809    3.8619725770
H       -1.1977151178   -2.1340441296    1.2834336530
H        1.2835820766   -2.3255798453    7.7368499131
H        2.0792413053   -3.6928934240    6.9296269498
H        3.0535916157   -2.4470487743    7.7219528238
H        5.5525910614    3.1501919193    1.7466205084
H        5.6709235372    3.1762630889   -0.0368203420
H        6.0249841149    1.6869729047    0.8652465334
H        3.0905898247   -2.0971511792    5.2504130606
H        2.3005078994   -0.7495440144    6.0715623644
H        1.7332776384    1.3291702359    0.5247044383
H        0.4894468936   -2.8947594408    5.2117754401
H        3.3472765744    2.8734565211    0.3932976340
28   
Generated by ForceBalance from scan.xyz: Frame 16 of 24
C        0.4271182357   -0.6341847248    1.2280736689
C        1.5913821121   -0.4500626096    3.3332305393
C       -0.2785001612   -1.7009237884    1.7841149743
C        1.3950569159   -0.0063387996    2.0285552029
C        0.8372000783   -1.5532263337    3.7843473542
C        3.4886723936    1.1824472818    1.4937695459
C        2.1012154490   -2.6321921165    7.1596241018
C        5.3892970459    2.5143459332    0.7185681942
C        2.1524831963   -1.7947788698    5.8842612818
N       -0.0895150786   -2.1706819426    3.0204763858
N        2.0811620696    1.1351923102    1.5390104275
N        0.9759830490   -2.0521736795    5.0625644968
N        3.9619736365    2.2048885577    0.6882499240
O        4.2187694760    0.4085619774    2.0984155682
H        0.2407357197   -0.3178516362    0.2052699332
H        2.3289052888    0.0287932720    3.9631430172
H       -1.0343258610   -2.2161999754    1.1923326416
H        1.1995608819   -2.4073620498    7.7385045490
H        2.1039366835   -3.7037519984    6.9286510628
H        2.9731281203   -2.4241044904    7.7865261605
H        5.6989316005    2.9766700607    1.6643296113
H        5.6196162022    3.1901743638   -0.1086504470
H        5.9545055756    1.5909151292    0.5894727450
H        3.0775319378   -2.0080978445    5.3274150664
H        2.1783137862   -0.7312395703    6.1507266615
H        1.6420417344    1.5220174057    0.7101888298
H        0.5335693490   -2.9576753158    5.1716827257
H        3.3409346156    2.9949934599    0.5611398147
28   
Generated by ForceBalance from scan.xyz: Frame 17 of 24
C        0.5364434151   -0.6286370819    1.2398003106
C        1.5835709515   -0.4297775565    3.4031725143
C       -0.1408416492   -1.7410199901    1.7411280692
C        1.4283577811    0.0279733916    2.0999560501
C        0.8686237304   -1.5800924965    3.7989461993
C        3.4864417274    1.1741414413    1.4270588844
C        2.0250373930   -2.6664485695    7.2099818499
C        5.3669443184    2.4796254184    0.5632042241
C        2.0927108655   -1.8000032862    5.9549618214
N        0.0133717842   -2.2245710475    2.9771049384
N        2.0991679309    1.2148850329    1.6799952932
N        0.9706746523   -2.0978816604    5.0729555116
N        3.9281945223    2.2716446808    0.7065834570
O        4.2211203872    0.2720768255    1.8054059505
H        0.3896749518   -0.3019187782    0.2141797605
H        2.2591782020    0.0818594220    4.0771298808
H       -0.8399733468   -2.2826125567    1.1048834118
H        1.0868388094   -2.5001867918    7.7491663437
H        2.0940776662   -3.7311089994    6.9586143451
H        2.8546092631   -2.4280541987    7.8819157282
H        5.8445660375    2.7788446689    1.5047581973
H        5.5370487731    3.2514411010   -0.1915321437
H        5.8270486595    1.5493733324    0.2287760549
H        3.0524040738   -1.9552058996    5.4388512387
H        2.0515524045   -0.7425369383    6.2431779580
H        1.5846687610    1.7079040987    0.9567878942
H        0.5696869863   -3.0262065578    5.1441327921
H        3.3662066751    3.1103215121    0.7906168333
28   
Generated by ForceBalance from scan.xyz: Frame 18 of 24
C        0.6739039884   -0.6180206006    1.2547509790
C        1.5973203406   -0.4285922635    3.4733177515
C        0.0123063233   -1.7644974727    1.6972151414
C        1.4913320666    0.0513304442    2.1748923923
C        0.9014052031   -1.6102107377    3.8119173436
C        3.4803681407    1.1886959308    1.3339282939
C        1.8992738116   -2.7166772830    7.2666069110
C        5.3100364545    2.4979999414    0.3726751248
C        2.0116953697   -1.8303623189    6.0287268303
N        0.1166337224   -2.2652529740    2.9320722138
N        2.1607672082    1.2693120356    1.8205275273
N        0.9511992665   -2.1484624459    5.0804042441
N        3.8979121939    2.3595171358    0.7199623956
O        4.1841382863    0.1938737520    1.4451749309
H        0.5757887147   -0.2753130286    0.2290165765
H        2.2162419603    0.0969670179    4.1905158376
H       -0.6303382431   -2.3197186279    1.0149373608
H        0.9272282469   -2.5862770263    7.7530296956
H        2.0150301849   -3.7749737721    7.0058713276
H        2.6815342786   -2.4635904610    7.9880693541
H        5.9514984796    2.6162802404    1.2552261641
H        5.4283120702    3.3659220784   -0.2809450647
H        5.6310802451    1.6042778116   -0.1631539106
H        3.0037039197   -1.9501975674    5.5667327717
H        1.9221177688   -0.7788831536    6.3276304955
H        1.5734717514    1.8839678114    1.2649728901
H        0.5789090280   -3.0908718920    5.1135028102
H        3.4350975405    3.2057224942    1.0299745973
28   
Generated by ForceBalance from scan.xyz: Frame 19 of 24
C       -0.4141981940   -0.7883303336    1.3012558687
C        1.3452921424   -0.8581713840    2.9486362265
C       -1.0273917214   -1.8161367446    2.0148783217
C        0.7990694993   -0.2974517993    1.7965886763
C        0.6285578800   -1.8800563996    3.6092052350
C        2.1509559544    0.4734436074   -0.0943635623
C        3.3968961523   -3.2715049051    4.3311083767
C        3.5921607455    1.4472664077   -1.8142939810
C        2.4588772931   -2.4382561915    5.2160806336
N       -0.5403070687   -2.3557677103    3.1390364818
N        1.4808672052    0.7531746925    1.1138861413
N        1.0625397001   -2.4457132321    4.7954748734
N        2.9953724406    1.5026710597   -0.4817362820
O        2.0078519148   -0.5617549300   -0.7294731245
H       -0.8489772828   -0.3896598808    0.3921236231
H        2.3029196447   -0.5103112631    3.3227984604
H       -1.9710778969   -2.2318274718    1.6643532232
H        3.0931615191   -4.3237131017    4.3296445197
H        3.3830988992   -2.9176931888    3.2959982542
H        4.4272056763   -3.2140560742    4.7002199072
H        4.3768285816    2.2051264810   -1.8799404357
H        2.8570162829    1.6131639846   -2.6118354181
H        4.0368977442    0.4626910112   -1.9616134446
H        2.8056304021   -1.4006330603    5.2672654060
H        2.4846877055   -2.8116198391    6.2445929244
H        2.0218661093    1.3435041962    1.7378117593
H        0.5383184427   -3.2863000749    5.0129058497
H        2.7364265021    2.4258028416   -0.1540923154
28   
Generated by ForceBalance from scan.xyz: Frame 20 of 24
C       -0.3216629700   -0.8199377583    1.2787561676
C        1.3785606749   -0.8900652628    2.9904349176
C       -0.9784001655   -1.8185333184    1.9936631713
C        0.8858466955   -0.3424035175    1.8060309350
C        0.6166251291   -1.8801833121    3.6466393536
C        2.0866198319    0.5177546510   -0.1657446077
C        3.3302433193   -3.3034119816    4.5160709467
C        3.4271755650    1.5730823512   -1.9185389077
C        2.3715351000   -2.4314912668    5.3397699576
N       -0.5442081986   -2.3443754820    3.1462795761
N        1.6129766454    0.6847297645    1.1508054077
N        0.9941640361   -2.4248177628    4.8622865865
N        3.0049644141    1.4927817946   -0.5220380689
O        1.7347660123   -0.3850994493   -0.9116928855
H       -0.7166629717   -0.4399653250    0.3449354654
H        2.3269778198   -0.5514959502    3.3963728121
H       -1.9172970934   -2.2223903144    1.6173111448
H        3.0082827825   -4.3500897334    4.5288585248
H        3.3645704915   -2.9765858687    3.4725650025
H        4.3456173887   -3.2534481952    4.9255788492
H        4.2879098484    2.2428625162   -1.9871897490
H        2.6291822847    1.9353232009   -2.5787654170
H        3.7233527568    0.5795291017   -2.2561544740
H        2.7354998126   -1.3991859359    5.3796272253
H        2.3485761261   -2.7788133258    6.3774647764
H        2.2788359687    1.1481701327    1.7601221473
H        0.4447295109   -3.2492409047    5.0791568839
H        2.9175403255    2.3779489951   -0.0370121105
28   
Generated by ForceBalance from scan.xyz: Frame 21 of 24
C       -0.2058797462   -0.8871611182    1.2188071499
C        1.4388716338   -0.9363640592    2.9859570324
C       -0.9068243089   -1.8410548852    1.9525674918
C        1.0004044406   -0.4206767599    1.7638432565
C        0.6353636889   -1.8840412664    3.6520467117
C        2.0779633799    0.5518660989   -0.2491648267
C        3.2835472644   -3.3444232097    4.6507477474
C        3.3195112499    1.7181271792   -2.0048181695
C        2.3256948037   -2.4190554221    5.4151224340
N       -0.5221221128   -2.3386609578    3.1348060610
N        1.7774926046    0.5691160890    1.1235022240
N        0.9633368512   -2.3930023927    4.8976450877
N        3.0443688861    1.4864215740   -0.5887029460
O        1.5591057600   -0.2045834213   -1.0587831202
H       -0.5645974149   -0.5385956997    0.2598444388
H        2.3792110399   -0.6021072640    3.4143164528
H       -1.8449521521   -2.2330776948    1.5618556759
H        2.9327893862   -4.3811491371    4.6898446724
H        3.3564471166   -3.0552307944    3.5981341642
H        4.2878282070   -3.3069915730    5.0880905347
H        4.2314509383    2.3138255858   -2.0921686020
H        2.4960355464    2.2342725077   -2.5140966220
H        3.4751842910    0.7575589345   -2.4965968180
H        2.7166979421   -1.3959789751    5.4300730548
H        2.2640514353   -2.7287615161    6.4631135291
H        2.5220228574    0.9369891971    1.7049013632
H        0.3857557823   -3.1945310516    5.1268271907
H        3.1023942872    2.3019401381    0.0094705644
28   
Generated by ForceBalance from scan.xyz: Frame 22 of 24
C       -0.1355354168   -0.9546183373    1.1484037643
C        1.4660991081   -0.9706037690    2.9559515270
C       -0.8798477968   -1.8506459167    1.9126216558
C        1.0756272157   -0.5007687413    1.6972885488
C        0.6231080660   -1.8651007357    3.6434958199
C        2.0553054336    0.5811305395   -0.3317088715
C        3.1999839295   -3.3645610563    4.7561642244
C        3.2158808405    1.8642968788   -2.0601489008
C        2.2607710512   -2.3759443403    5.4622804393
N       -0.5374193234   -2.3089142094    3.1228778346
N        1.9064193997    0.4348666358    1.0531597838
N        0.9095781407   -2.3265012747    4.9178800647
N        3.0674671606    1.4711209872   -0.6607246818
O        1.3889726557   -0.0150502754   -1.1681464851
H       -0.4631359432   -0.6432277830    0.1669662181
H        2.4026206080   -0.6399550772    3.3958348772
H       -1.8220808470   -2.2295387760    1.5186586664
H        2.8139089530   -4.3865282213    4.8329313074
H        3.3003481738   -3.1235360726    3.6937214907
H        4.1974029969   -3.3414162143    5.2099558967
H        4.1618657185    2.3990063608   -2.1751632145
H        2.3921101632    2.5001791717   -2.4078116333
H        3.2383750647    0.9672772301   -2.6795290576
H        2.6864169048   -1.3668650536    5.4420119600
H        2.1698133620   -2.6384522010    6.5209698687
H        2.7064541390    0.7228129980    1.6037929373
H        0.3016067278   -3.0983713408    5.1693171669
H        3.2651491348    2.1941459206    0.0206565988
28   
Generated by ForceBalance from scan.xyz: Frame 23 of 24
C       -0.0550647034   -1.0495547443    1.1056936717
C        1.5200793055   -1.0243799793    2.9377080494
C       -0.8346054652   -1.8866328367    1.9020499588
C        1.1624194246   -0.6048832312    1.6499897825
C        0.6471050364   -1.8663900807    3.6508555819
C        2.0546271610    0.5821629850   -0.3746667354
C        3.1649389763   -3.3906250979    4.8546694593
C        3.1290427202    1.9895085656   -2.0620167368
C        2.2488621186   -2.3464988524    5.5094727987
N       -0.5199952022   -2.3010476229    3.1349029427
N        2.0414385250    0.2648350383    0.9851159773
N        0.9055212106   -2.2792689889    4.9479461291
N        3.0929482185    1.4411380407   -0.7082378548
O        1.2631866690    0.1412336847   -1.1995248820
H       -0.3620342326   -0.7720004077    0.1082185327
H        2.4549792325   -0.6922881689    3.3802379249
H       -1.7829491656   -2.2547918591    1.5122576250
H        2.7472345930   -4.3966168380    4.9681096620
H        3.2831104711   -3.1959196914    3.7845707780
H        4.1579795485   -3.3789067273    5.3183948105
H        4.0976361352    2.4703810190   -2.2191142113
H        2.3269238490    2.7158583869   -2.2432736603
H        3.0179396542    1.1742162193   -2.7773245021
H        2.7052064349   -1.3522890054    5.4533275053
H        2.1392605553   -2.5627017676    6.5768294435
H        2.8838992524    0.4888031286    1.4997700902
H        0.2714197147   -3.0207096418    5.2250445004
H        3.4136345659    2.0635977642    0.0236406861
28   
Generated by ForceBalance from scan.xyz: Frame 24 of 24
C       -0.0051344351   -1.1434887366    1.0421887169
C        1.5550995673   -1.0733704610    2.8860316928
C       -0.8164192604   -1.9156402666    1.8722612519
C        1.2216794539   -0.7090525439    1.5745703916
C        0.6536979891   -1.8568903111    3.6288002466
C        2.0444829385    0.5705352306   -0.4281558460
C        3.1121768543   -3.4021008938    4.9212061856
C        3.0556286773    2.1025690256   -2.0436800394
C        2.2275802866   -2.2988664347    5.5199657330
N       -0.5228689614   -2.2811267336    3.1253099003
N        2.1429126440    0.0826426675    0.8736339465
N        0.8903019530   -2.2141649088    4.9464009905
N        3.1021248885    1.4066990533   -0.7599284568
O        1.1553357449    0.2742591303   -1.2183425431
H       -0.2986208889   -0.8979488306    0.0325141166
H        2.4926009602   -0.7417698063    3.3235545908
H       -1.7730652929   -2.2726612033    1.4924379778
H        2.6607491268   -4.3873918541    5.0786359409
H        3.2423833635   -3.2617308419    3.8440064358
H        4.1025594869   -3.4011891113    5.3907122557
H        4.0342922566    2.5497520074   -2.2343667170
H        2.2853773637    2.8833640692   -2.0718289431
H        2.8365443615    1.3801956307   -2.8304157616
H        2.7169503542   -1.3239103012    5.4207001448
H        2.1048842279   -2.4609605677    6.5954415988
H        3.0068716421    0.2720808526    1.3652855131
H        0.2302748906   -2.9201130941    5.2540034472
H        3.5271260034    1.9227518816    0.0008728669
