28   
Generated by ForceBalance from scan.xyz: Frame 1 of 24
C       -2.5257693776   -2.0438152759    1.9369415830
C       -1.0479305308   -2.9222945204    3.6233924968
C       -0.5973113593   -0.8321716162    2.7670958970
C       -2.2102664936   -3.0944895206    2.8169575416
C       -1.7052055394   -0.9099397433    1.9317500179
C       -3.9577328756   -4.6165663158    1.9284026665
C       -3.4372617844    0.7479895993    1.3357461968
C       -2.0407065515   -0.2819858024   -0.4356960626
C       -1.0901551405    1.3716388069    1.0874151626
N       -0.2866170802   -1.8453345724    3.5977255285
N       -2.9622270900   -4.2308081364    2.9192264527
N       -2.0597157747    0.2173192141    0.9944307255
H       -3.3924252893   -2.1291495598    1.2926001682
H       -0.7521412839   -3.7132645106    4.3130441895
H        0.0714477587    0.0193108964    2.8005999556
H       -3.5371424456   -4.6514323225    0.9141402127
H       -4.8085829264   -3.9262468176    1.9396531600
H       -4.3366334873   -5.6074657955    2.1797894862
H       -3.6672440613    1.5774224440    0.6662088976
H       -4.1714565595   -0.0442926652    1.2113731391
H       -3.4273509607    1.0824637751    2.3725080607
H       -2.2735822676    0.5515418245   -1.0990812452
H       -1.0469743238   -0.6751686738   -0.6472712720
H       -2.7817384310   -1.0686643047   -0.5547384822
H       -1.4153726665    2.1369081149    0.3834355422
H       -1.1021946211    1.7737362364    2.0988621142
H       -0.0919558334    1.0280550025    0.8220040728
H       -2.5610863860   -4.9760203819    3.4739026984
28   
Generated by ForceBalance from scan.xyz: Frame 2 of 24
C       -2.7681818899   -1.9475471208    1.9751504590
C       -2.3038851970   -2.3112426888    4.3073856046
C       -1.5346581636   -0.3691494142    3.3377668615
C       -2.9173212938   -2.7672111835    3.1072633295
C       -2.0782900144   -0.7387193654    2.1119569431
C       -3.6767720149   -4.7679879172    1.8585380043
C       -3.3182303611    0.5436546054    0.4025139130
C       -1.2002443563   -0.6000638628   -0.1947210596
C       -1.1759231750    1.4121309018    1.1876632631
N       -1.6539667011   -1.1661449577    4.4143894063
N       -3.5970542145   -3.9594779214    3.0747020579
N       -1.9425598287    0.1437082645    0.8965332503
H       -3.1995755636   -2.2611984199    1.0318046713
H       -2.3665223968   -2.9220737478    5.2082870153
H       -0.9855990947    0.5510933205    3.4973222097
H       -2.6925933794   -4.9071085134    1.3913175554
H       -4.3584346060   -4.3154641054    1.1310598612
H       -4.0841187162   -5.7458006962    2.1172751666
H       -3.2013896035    1.2010131658   -0.4596409884
H       -3.8739763540   -0.3465197737    0.1179823035
H       -3.8353647637    1.0588029908    1.2112385853
H       -1.0898773702    0.0614641573   -1.0545294791
H       -0.2247975911   -0.8917821087    0.1929412892
H       -1.7645131840   -1.4852457215   -0.4781619718
H       -1.1259503556    1.9898592618    0.2653312158
H       -1.6995121029    1.9840695997    1.9516286525
H       -0.1699948039    1.1594214570    1.5180788365
H       -3.5263627556   -4.4972397175    3.9304420588
28   
Generated by ForceBalance from scan.xyz: Frame 3 of 24
C       -2.8250653535   -1.8964542930    1.9575630868
C       -2.3294697778   -2.3034930609    4.2726649470
C       -1.5246004351   -0.3710267120    3.3150530501
C       -2.9785722033   -2.7242735607    3.0816891364
C       -2.0983771606   -0.7107326703    2.0924827373
C       -3.5384597630   -4.8260415498    1.9017554718
C       -3.3348136993    0.6292712952    0.4255819079
C       -1.2641850355   -0.5682439154   -0.2302024568
C       -1.1515248503    1.4244092581    1.1764470920
N       -1.6476925934   -1.1746071065    4.3838202533
N       -3.6953203249   -3.9045793055    3.0349006449
N       -1.9612806134    0.1828836982    0.8855860811
H       -3.2878009426   -2.1869870501    1.0211292186
H       -2.3906545084   -2.9242156763    5.1667940774
H       -0.9447715069    0.5305377892    3.4737981595
H       -2.4841532209   -5.0450401336    1.6876602421
H       -4.0104629453   -4.4210112309    1.0022165173
H       -4.0539295864   -5.7569695748    2.1414458500
H       -3.2163609152    1.2942289750   -0.4304912999
H       -3.9222427046   -0.2405666900    0.1416220847
H       -3.8198178133    1.1486184620    1.2513477835
H       -1.1539003100    0.1003010447   -1.0845493781
H       -0.2891168012   -0.8919331517    0.1322467669
H       -1.8595165213   -1.4335497113   -0.5116133032
H       -1.1019135223    2.0115338278    0.2600594011
H       -1.6431661033    2.0026772093    1.9567282307
H       -0.1474256324    1.1380607141    1.4843062630
H       -3.6892653388   -4.3884228973    3.9267807096
28   
Generated by ForceBalance from scan.xyz: Frame 4 of 24
C       -2.8699865964   -1.8500612714    1.9239335392
C       -2.3503538909   -2.3123573154    4.2205718846
C       -1.5063984502   -0.3872387267    3.2838091435
C       -3.0209596726   -2.6959228235    3.0333728421
C       -2.1076278307   -0.6892995042    2.0620411425
C       -3.3939830382   -4.8904664101    1.9701323952
C       -3.3436241260    0.7202397002    0.4534245187
C       -1.3250234568   -0.5222867186   -0.2764126849
C       -1.1201800032    1.4366104499    1.1675048209
N       -1.6381853359   -1.1993269539    4.3418996928
N       -3.7758097289   -3.8629794791    2.9562231694
N       -1.9727990557    0.2254657035    0.8710336183
H       -3.3711545541   -2.1105908250    0.9977909042
H       -2.4180201826   -2.9434775763    5.1066747812
H       -0.8980569467    0.4950811734    3.4461170482
H       -2.3609517822   -5.2369260216    2.1048367977
H       -3.5084611104   -4.5051051769    0.9541111264
H       -4.0740563732   -5.7375387616    2.0742244110
H       -3.2260783512    1.3992545278   -0.3916625724
H       -3.9623076742   -0.1265805407    0.1660550811
H       -3.7939213832    1.2358724467    1.3008894137
H       -1.2170142347    0.1599311485   -1.1201513853
H       -0.3508097164   -0.8804117302    0.0546251160
H       -1.9519025862   -1.3644991085   -0.5595295608
H       -1.0727200760    2.0399074148    0.2615728155
H       -1.5773810729    2.0141593871    1.9690000623
H       -0.1186095105    1.1148676747    1.4476295766
H       -3.8884801378   -4.2799158837    3.8762161115
28   
Generated by ForceBalance from scan.xyz: Frame 5 of 24
C       -2.9123575236   -1.8517828217    1.8927957326
C       -2.3787728443   -2.3863999729    4.1688799597
C       -1.4786457254   -0.4726456984    3.2632627934
C       -3.0734912586   -2.7163050811    2.9836830424
C       -2.1062250883   -0.7230275899    2.0414680795
C       -3.2960788320   -4.9763771583    2.0643360773
C       -3.3194038587    0.7712897917    0.4942763692
C       -1.3644344113   -0.5270133646   -0.3072432196
C       -1.0558577080    1.3862411234    1.1798216537
N       -1.6252201660   -1.2990882645    4.3061407157
N       -3.8658608744   -3.8675177381    2.8592581042
N       -1.9597809734    0.2160443632    0.8714637651
H       -3.4447962383   -2.0802600663    0.9749956206
H       -2.4593578494   -3.0331752686    5.0422923397
H       -0.8376189166    0.3847404451    3.4354373409
H       -2.3455971401   -5.3447866349    2.4729571215
H       -3.1306019455   -4.6489006551    1.0348151646
H       -4.0195727961   -5.7934412950    2.0403700161
H       -3.1933721275    1.4651933211   -0.3373868137
H       -3.9749054259   -0.0452691926    0.2007438559
H       -3.7328226174    1.2832830651    1.3624961682
H       -1.2486102504    0.1712498794   -1.1366737624
H       -0.3975587154   -0.9289192955   -0.0062769282
H       -2.0287347421   -1.3379164205   -0.5965376231
H       -1.0012834512    2.0088058992    0.2874288800
H       -1.4759019321    1.9619932296    2.0027094362
H       -0.0624915809    1.0199437721    1.4334889670
H       -4.1222138033   -4.2129524502    3.7814626728
28   
Generated by ForceBalance from scan.xyz: Frame 6 of 24
C       -2.9443909040   -1.8326863478    1.8451267487
C       -2.3932285629   -2.4412124706    4.0964908586
C       -1.4629815412   -0.5251402950    3.2290008687
C       -3.1087457924   -2.7199297795    2.9134525654
C       -2.1117011548   -0.7245908264    2.0086260267
C       -3.2172671572   -5.0426006277    2.1918961987
C       -3.3136997540    0.8347236252    0.5186767948
C       -1.3983249649   -0.4830156256   -0.3438757090
C       -1.0278873962    1.3842967472    1.1879591789
N       -1.6113306192   -1.3741707971    4.2527086239
N       -3.9234732475   -3.8638996438    2.7445180682
N       -1.9608069418    0.2419862285    0.8622879524
H       -3.4957016846   -2.0357177618    0.9322489513
H       -2.4785408702   -3.1085563946    4.9536790793
H       -0.8023714791    0.3145679288    3.4154814677
H       -2.3635724943   -5.3585808029    2.8072722955
H       -2.8547689687   -4.8127418343    1.1862929592
H       -3.9289024448   -5.8668720546    2.1127519257
H       -3.1844242736    1.5463784446   -0.2973200237
H       -3.9900700671    0.0393517555    0.2143652370
H       -3.7041062401    1.3335233306    1.4050512120
H       -1.2797412147    0.2338339181   -1.1568871490
H       -0.4358693416   -0.9125153059   -0.0678602403
H       -2.0840745170   -1.2720799224   -0.6435108927
H       -0.9718250460    2.0286744000    0.3112861265
H       -1.4242654172    1.9474269342    2.0311374808
H       -0.0391204575    0.9907816320    1.4179278612
H       -4.3324959053   -4.1208960573    3.6413311262
28   
Generated by ForceBalance from scan.xyz: Frame 7 of 24
C       -2.9169466947   -1.9745551613    1.8038319770
C       -2.2965034424   -2.6698496218    4.0150876506
C       -1.3717738687   -0.7326722694    3.1848046090
C       -3.0336891788   -2.9191928553    2.8305601687
C       -2.0806498104   -0.8669343275    1.9953559926
C       -3.3545062541   -5.3473847935    2.6728856214
C       -3.3373465733    0.7629564764    0.6301064318
C       -1.4525722380   -0.5029793359   -0.3675330696
C       -1.0306451651    1.2839236709    1.2424232187
N       -1.4866183590   -1.6328713775    4.1753256530
N       -3.9336064208   -3.9920650803    2.7886063177
N       -1.9736316099    0.1562885481    0.8935873379
H       -3.4796907147   -2.1240033505    0.8866444827
H       -2.3924430526   -3.3536775259    4.8562664150
H       -0.7095171719    0.1006579375    3.3904602434
H       -2.6813363347   -5.5342091405    3.5124816015
H       -2.7956479331   -5.4894925992    1.7380117300
H       -4.1642833536   -6.0776574039    2.7247221546
H       -3.2388153770    1.5154972571   -0.1528268415
H       -4.0244242538   -0.0168786719    0.3100620608
H       -3.6955037271    1.2149199374    1.5544003340
H       -1.3612624926    0.2558060933   -1.1452892455
H       -0.4816658644   -0.9451253147   -0.1467860902
H       -2.1474152364   -1.2765727251   -0.6857402862
H       -1.0078902790    1.9717339759    0.3978288709
H       -1.3963273482    1.8015204737    2.1275058726
H       -0.0337470196    0.8821527542    1.4153460965
H       -4.6259535771   -3.8538036875    2.0564943409
28   
Generated by ForceBalance from scan.xyz: Frame 8 of 24
C       -2.9055299390   -1.9805196264    1.7334429057
C       -2.2559299231   -2.7380454238    3.9172917828
C       -1.3560819027   -0.7663253918    3.1360337251
C       -3.0091534374   -2.9586169175    2.7332696649
C       -2.0748270113   -0.8751423761    1.9500148320
C       -3.4017406672   -5.3961239214    2.8175601472
C       -3.3508715701    0.7852041464    0.6400076033
C       -1.4706206821   -0.4458391950   -0.4085607762
C       -1.0406449012    1.2987352876    1.2442795875
N       -1.4565366680   -1.6983007427    4.0986474189
N       -3.9056022523   -4.0186052648    2.6517521812
N       -1.9826488918    0.1771342060    0.8743246495
H       -3.4741101464   -2.1054150665    0.8162329266
H       -2.3259186032   -3.4448851559    4.7410585442
H       -0.6977482437    0.0648687921    3.3605218535
H       -2.9275635676   -5.5094731320    3.7938711908
H       -2.6788955851   -5.6730562475    2.0395123419
H       -4.2512327810   -6.0803191430    2.7821164856
H       -3.2624718167    1.5591267472   -0.1230746002
H       -4.0381411302    0.0116029677    0.3056701086
H       -3.7019412447    1.2103758892    1.5795934561
H       -1.3877477909    0.3341888595   -1.1660033711
H       -0.4967545263   -0.8910582528   -0.2079531887
H       -2.1658378352   -1.2125042497   -0.7420892969
H       -1.0283124524    2.0088247961    0.4181024831
H       -1.4000052130    1.7910314765    2.1461794070
H       -0.0409200086    0.8961249956    1.3976603292
H       -4.4924841255   -3.9515409861    1.8251029980
28   
Generated by ForceBalance from scan.xyz: Frame 9 of 24
C       -2.8831036453   -1.9852539667    1.6644332771
C       -2.1927866501   -2.8023048475    3.8158800432
C       -1.3329282870   -0.7912428180    3.0845316636
C       -2.9647377650   -2.9957956764    2.6374788964
C       -2.0625390292   -0.8794912691    1.9021195879
C       -3.4420563291   -5.4098603720    2.9310903365
C       -3.3683807353    0.8038138886    0.6514163419
C       -1.4909440846   -0.3829556316   -0.4518399617
C       -1.0553851371    1.3207173848    1.2410652341
N       -1.4096395259   -1.7536526833    4.0174864629
N       -3.8446194873   -4.0548498993    2.5177857530
N       -1.9925999541    0.2012626134    0.8529573606
H       -3.4630790285   -2.0881648118    0.7516302471
H       -2.2244931844   -3.5386050115    4.6149016255
H       -0.6819376838    0.0410337869    3.3250380644
H       -3.3218868101   -5.4614846364    4.0150001830
H       -2.5097563387   -5.7322703494    2.4513031298
H       -4.2423180007   -6.0998263376    2.6598833615
H       -3.2955584075    1.5987688621   -0.0914582959
H       -4.0534689008    0.0336856721    0.3048776184
H       -3.7113243678    1.2004641394    1.6063425385
H       -1.4220196059    0.4178563576   -1.1887238873
H       -0.5118220264   -0.8263803719   -0.2741505008
H       -2.1844302680   -1.1453468411   -0.7983682710
H       -1.0581699522    2.0518638622    0.4333670541
H       -1.4083491436    1.7866891505    2.1592884549
H       -0.0509677992    0.9223304016    1.3731714358
H       -4.3339469562   -4.0598657617    1.6290535771
28   
Generated by ForceBalance from scan.xyz: Frame 10 of 24
C       -2.8709137991   -2.0001705032    1.6224104901
C       -2.1495577683   -2.8683239540    3.7461076165
C       -1.3103155959   -0.8330807634    3.0550566158
C       -2.9385824297   -3.0350633086    2.5740021784
C       -2.0513441205   -0.8998484808    1.8766522992
C       -3.5247375313   -5.3985665812    3.0499361563
C       -3.3741800495    0.8074645114    0.6767879713
C       -1.5052900519   -0.3494081911   -0.4716598681
C       -1.0567839001    1.3172806554    1.2539438677
N       -1.3725873673   -1.8175532826    3.9640071632
N       -3.7942722117   -4.0994700880    2.4218746338
N       -1.9951173391    0.2041665886    0.8506996058
H       -3.4627591727   -2.0826313455    0.7151928281
H       -2.1588209534   -3.6267625182    4.5241776738
H       -0.6586130380   -0.0047112099    3.3063588201
H       -3.6779439673   -5.3449310315    4.1308186023
H       -2.5062297286   -5.7525636630    2.8487272808
H       -4.2365311697   -6.1236519553    2.6539284534
H       -3.3105731964    1.6205390610   -0.0471178513
H       -4.0605545014    0.0440476351    0.3181911667
H       -3.7090264537    1.1796977152    1.6443316527
H       -1.4441484916    0.4680723233   -1.1907328389
H       -0.5241009437   -0.7955678239   -0.3132868284
H       -2.2011655065   -1.1046365189   -0.8288730019
H       -1.0703538346    2.0665520113    0.4631332815
H       -1.4010250746    1.7612306779    2.1862497372
H       -0.0500120791    0.9188509675    1.3663343949
H       -4.2211034324   -4.1683831524    1.5058654737
28   
Generated by ForceBalance from scan.xyz: Frame 11 of 24
C       -2.8216185697   -1.9926123104    1.5715417529
C       -2.0671270520   -2.8906595997    3.6735699278
C       -1.2869565748   -0.8167622994    3.0259578870
C       -2.8609333251   -3.0499253240    2.5024403556
C       -2.0291974650   -0.8790622759    1.8471662869
C       -3.5356513360   -5.3681710354    3.0992580086
C       -3.3976362751    0.8166523259    0.6811540308
C       -1.4975888861   -0.2654496297   -0.4886883077
C       -1.0957289195    1.3769614120    1.2712667414
N       -1.3204613213   -1.8223535795    3.9122615691
N       -3.6587799334   -4.1438798760    2.3089630260
N       -2.0030570261    0.2472309335    0.8440756115
H       -3.4150881304   -2.0703119779    0.6650484071
H       -2.0478440962   -3.6671919744    4.4329358060
H       -0.6544512885    0.0216626966    3.2921400035
H       -3.8206593688   -5.1880650825    4.1398882304
H       -2.5181919493   -5.7772872781    3.0719047278
H       -4.2219929419   -6.1106739158    2.6911789687
H       -3.3554311602    1.6464582721   -0.0251257791
H       -4.0630086338    0.0429931706    0.3054385778
H       -3.7430535561    1.1589667141    1.6560046252
H       -1.4585376979    0.5678730470   -1.1909510715
H       -0.5046368823   -0.6877103910   -0.3383351624
H       -2.1721796987   -1.0322677647   -0.8617193411
H       -1.1313633547    2.1429689272    0.4973454794
H       -1.4509817436    1.7900170177    2.2135686957
H       -0.0780806432    1.0044887186    1.3740635594
H       -4.0597878245   -4.2496465306    1.3864313890
28   
Generated by ForceBalance from scan.xyz: Frame 12 of 24
C       -2.7859413982   -2.0144555781    1.5530352161
C       -1.9964630838   -2.9331299381    3.6348898197
C       -1.2548668847   -0.8375531981    3.0117559669
C       -2.7988800616   -3.0880467059    2.4675141550
C       -2.0076767413   -0.8938807401    1.8392960490
C       -3.5924568094   -5.3507754104    3.1521113078
C       -3.4091517487    0.7895698302    0.6926974397
C       -1.4866622437   -0.2403859972   -0.4872629589
C       -1.1205765049    1.3884345197    1.2934321985
N       -1.2654839480   -1.8568902529    3.8831300630
N       -3.5389608354   -4.2096828137    2.2441201000
N       -2.0041146975    0.2458731658    0.8508560041
H       -3.3831301683   -2.0887930401    0.6487588203
H       -1.9588576336   -3.7204227302    4.3824220089
H       -0.6332175427    0.0064641564    3.2852765619
H       -3.9864652816   -5.0638553817    4.1333927680
H       -2.6041920332   -5.8054976616    3.2826821500
H       -4.2580201375   -6.1008370498    2.7242493085
H       -3.3820391006    1.6298355737   -0.0018511934
H       -4.0583808487    0.0085985177    0.3042668371
H       -3.7632508293    1.1114402587    1.6713954578
H       -1.4638015380    0.6018098665   -1.1796331873
H       -0.4855467162   -0.6441345066   -0.3403033410
H       -2.1447971226   -1.0168908653   -0.8696758719
H       -1.1731074983    2.1643601084    0.5304203067
H       -1.4835205357    1.7799712168    2.2420010425
H       -0.0951203278    1.0364614130    1.3899901361
H       -4.0870681742   -4.2573259790    1.3969794741
28   
Generated by ForceBalance from scan.xyz: Frame 13 of 24
C       -2.7518811904   -2.0296994794    1.5289394272
C       -1.9334614345   -2.9617000138    3.5918909022
C       -1.2414456330   -0.8409687605    2.9982307373
C       -2.7355182068   -3.1166077856    2.4258090436
C       -1.9976565949   -0.8958518768    1.8279752173
C       -3.6438466802   -5.3106506702    3.1653622438
C       -3.4378166900    0.7662830523    0.6971956136
C       -1.4853352265   -0.2002080483   -0.4874350790
C       -1.1677957095    1.4152706359    1.3154568415
N       -1.2260791743   -1.8725223161    3.8546766179
N       -3.4154014720   -4.2733201792    2.1601964379
N       -2.0201517293    0.2563231257    0.8546379474
H       -3.3478281673   -2.1060720979    0.6239588450
H       -1.8755850233   -3.7587569683    4.3276583914
H       -0.6377058580    0.0127591295    3.2819870601
H       -4.1379730648   -4.9160649453    4.0617395880
H       -2.7010635981   -5.7833535092    3.4556854680
H       -4.2792018916   -6.0802581342    2.7261246959
H       -3.4290730932    1.6158453139    0.0136114432
H       -4.0654583794   -0.0254192606    0.2953197505
H       -3.8041281651    1.0666149345    1.6782562323
H       -1.4826358258    0.6505012891   -1.1696960582
H       -0.4743631265   -0.5789894788   -0.3415445362
H       -2.1212150852   -0.9896108596   -0.8810504362
H       -1.2399918197    2.2007259138    0.5638996474
H       -1.5420878616    1.7828107647    2.2692545100
H       -0.1333713263    1.0894977016    1.4081411453
H       -4.0811611512   -4.2381979926    1.3995430880
28   
Generated by ForceBalance from scan.xyz: Frame 14 of 24
C       -2.7038812275   -2.0668281623    1.5157690742
C       -1.8386344137   -3.0057938990    3.5538390701
C       -1.2074892710   -0.8607729874    2.9842002230
C       -2.6534992485   -3.1622937792    2.3981069822
C       -1.9722809385   -0.9183931553    1.8205939125
C       -3.7054957107   -5.2736968168    3.1672688897
C       -3.4620816092    0.7200682681    0.7198095746
C       -1.4944824478   -0.1834752705   -0.4894082795
C       -1.2047641576    1.4189481568    1.3303807495
N       -1.1572122859   -1.9029687900    3.8271487457
N       -3.2792954701   -4.3508484515    2.1082490422
N       -2.0308444279    0.2442100684    0.8616797058
H       -3.3083758524   -2.1452759908    0.6165736561
H       -1.7502159486   -3.8143860707    4.2743046971
H       -0.6193989850    0.0025890937    3.2719844347
H       -4.2859074373   -4.7679045930    3.9485793306
H       -2.8419063745   -5.7640047290    3.6238677348
H       -4.3222128902   -6.0511369788    2.7150856509
H       -3.4793532162    1.5774824421    0.0462960024
H       -4.0724613226   -0.0822716985    0.3125007359
H       -3.8289809046    0.9997061227    1.7067542183
H       -1.5187289464    0.6745750166   -1.1619684759
H       -0.4730804226   -0.5378058819   -0.3552124108
H       -2.1129879968   -0.9845307234   -0.8872349437
H       -1.3039499882    2.2118449492    0.5898066134
H       -1.5800480245    1.7643775348    2.2920499787
H       -0.1613772411    1.1192527316    1.4098448730
H       -3.9146038229   -4.3104804963    1.3203628468
28   
Generated by ForceBalance from scan.xyz: Frame 15 of 24
C       -2.6607053533   -2.0814212711    1.5239968664
C       -1.7359256454   -3.0179241863    3.5340923117
C       -1.1541452766   -0.8594249196    2.9670159831
C       -2.5760596609   -3.1784280102    2.3981042199
C       -1.9380132987   -0.9222196183    1.8182157858
C       -3.8172198559   -5.1808610679    3.1676192842
C       -3.4718710345    0.6996860846    0.7546764333
C       -1.5168736095   -0.1722022552   -0.4976169948
C       -1.2122021531    1.4272493087    1.3227494033
N       -1.0691647210   -1.9060157171    3.8037249004
N       -3.1695982157   -4.3918482600    2.1060724049
N       -2.0315139215    0.2431045276    0.8658964156
H       -3.2848909930   -2.1633711507    0.6386513491
H       -1.6133029783   -3.8347565065    4.2407297712
H       -0.5712948324    0.0102501479    3.2467773053
H       -4.5663188747   -4.6005290194    3.7202505837
H       -3.0741798766   -5.5644215223    3.8695887676
H       -4.3009325081   -6.0419225573    2.7043268792
H       -3.5145980608    1.5584284293    0.0840155802
H       -4.0794549470   -0.1098934891    0.3576026980
H       -3.8223165289    0.9718996282    1.7496463531
H       -1.5681366312    0.6875439648   -1.1664398998
H       -0.4876515230   -0.5114157349   -0.3859876094
H       -2.1315028629   -0.9811727037   -0.8853421940
H       -1.3378068650    2.2218822251    0.5880802687
H       -1.5722394622    1.7634806538    2.2934907584
H       -0.1632940155    1.1418402603    1.3791558985
H       -3.7305888819   -4.3612093403    1.2612979622
28   
Generated by ForceBalance from scan.xyz: Frame 16 of 24
C       -2.6022210817   -2.1201244408    1.5432146382
C       -1.6068974970   -3.0568272738    3.5172807924
C       -1.0954648126   -0.8786123167    2.9681802095
C       -2.4723933839   -3.2206946314    2.4028436138
C       -1.8974372287   -0.9463297268    1.8335747513
C       -3.9001090457   -5.1010196729    3.1299238634
C       -3.4844326063    0.6545417883    0.8182104981
C       -1.5405857451   -0.1684715097   -0.4834942132
C       -1.2270216015    1.4210480475    1.3443775446
N       -0.9640710419   -1.9322883920    3.7914553443
N       -3.0350193181   -4.4605287881    2.1197933242
N       -2.0332346781    0.2252731678    0.8945274737
H       -3.2460941748   -2.2073925598    0.6726020014
H       -1.4393019499   -3.8889077763    4.1974753565
H       -0.5267116808    0.0014786158    3.2450269095
H       -4.7978570325   -4.5083112116    3.3473987931
H       -3.3468920109   -5.2540087178    4.0580489700
H       -4.1964801598   -6.0829013204    2.7569854571
H       -3.5585020190    1.5166563929    0.1546576140
H       -4.0848104775   -0.1641735394    0.4288635250
H       -3.8180742650    0.9133852465    1.8224820161
H       -1.6239154854    0.6954461597   -1.1436212531
H       -0.5025210845   -0.4876671020   -0.3975991974
H       -2.1475571352   -0.9863081337   -0.8646846426
H       -1.3827189531    2.2190084606    0.6191429956
H       -1.5733258732    1.7430231261    2.3249266080
H       -0.1719503193    1.1551748857    1.3768594767
H       -3.4848700558   -4.4697569047    1.2088437366
28   
Generated by ForceBalance from scan.xyz: Frame 17 of 24
C       -2.5440514640   -2.1512983267    1.5709210706
C       -1.4825931742   -3.0769986385    3.5137122714
C       -1.0345557091   -0.8859579232    2.9699585670
C       -2.3701974464   -3.2490843689    2.4222619701
C       -1.8574149795   -0.9625802445    1.8508706211
C       -3.9850648888   -4.9815731314    3.0661526796
C       -3.4944636644    0.6126635196    0.8767917891
C       -1.5649340679   -0.1704034132   -0.4700401685
C       -1.2398532442    1.4185919571    1.3566018985
N       -0.8592340772   -1.9391857432    3.7852151304
N       -2.9112159300   -4.5151637363    2.1634054202
N       -2.0341699773    0.2098881244    0.9200597348
H       -3.2048783458   -2.2508132577    0.7143846795
H       -1.2821275331   -3.9176872050    4.1751212320
H       -0.4791160938    0.0054696264    3.2385813802
H       -4.8791656289   -4.3449864457    3.0231705953
H       -3.6201489805   -4.9998654997    4.0954647632
H       -4.2543098024   -6.0024789156    2.7886951665
H       -3.5989343751    1.4743473582    0.2168041027
H       -4.0880531154   -0.2163952340    0.4988727795
H       -3.8106273794    0.8636575736    1.8886825721
H       -1.6786930732    0.6939051910   -1.1250512415
H       -0.5195171385   -0.4706896062   -0.4084182106
H       -2.1654614580   -0.9977970638   -0.8407601748
H       -1.4256221212    2.2159485052    0.6378166201
H       -1.5705728510    1.7316305539    2.3454182676
H       -0.1796510935    1.1718161529    1.3651243152
H       -3.2241857232   -4.5832693665    1.1980760694
28   
Generated by ForceBalance from scan.xyz: Frame 18 of 24
C       -2.4168173262   -2.0982639855    1.5203334957
C       -1.2561263841   -3.0260904458    3.3998154048
C       -0.8518268163   -0.8307661750    2.8469227079
C       -2.1663681340   -3.2049913886    2.3374543602
C       -1.7509591618   -0.8995092307    1.7808748659
C       -4.1721643602   -4.5080089934    2.7888149986
C       -3.4771390920    0.6451164898    0.9227953259
C       -1.6074821530   -0.0706960469   -0.5404223393
C       -1.2187393570    1.5028589758    1.2892362799
N       -0.6114095183   -1.8847317313    3.6358248913
N       -2.8639203811   -4.4128661862    2.1000612134
N       -2.0066429941    0.2810720143    0.8796809420
H       -3.1107853305   -2.2284299755    0.6957523309
H       -1.0348672091   -3.8550112324    4.0716029181
H       -0.3065222106    0.0716100097    3.1010906279
H       -4.8397017990   -3.7277683738    2.4132066669
H       -4.0911280042   -4.4032158233    3.8795479792
H       -4.6185435433   -5.4758682176    2.5519566646
H       -3.6405400701    1.5104079238    0.2797532629
H       -4.0682724104   -0.1960393877    0.5682948910
H       -3.7428747578    0.8776196071    1.9534742843
H       -1.7784159338    0.7991798486   -1.1753384133
H       -0.5533603783   -0.3458440887   -0.5416255238
H       -2.2081650259   -0.9080697482   -0.8878271351
H       -1.4632537286    2.3051822151    0.5939565358
H       -1.5006578376    1.7943059338    2.2996691168
H       -0.1538919054    1.2831455744    1.2343773523
H       -2.2857367860   -5.1987310471    2.3929392777
28   
Generated by ForceBalance from scan.xyz: Frame 19 of 24
C       -2.4063988206   -2.1036172247    1.5781175444
C       -1.1768887643   -3.0093184136    3.4272955400
C       -0.7934107397   -0.8195269529    2.8368447859
C       -2.1253994094   -3.2043694415    2.3983787040
C       -1.7310834378   -0.9044055414    1.8058519515
C       -4.2150860866   -4.4631029167    2.6286155044
C       -3.4873201982    0.6310584688    0.9911479971
C       -1.6669243620   -0.0973826917   -0.5272208020
C       -1.2192973266    1.4932825813    1.2731420812
N       -0.5260323710   -1.8667628277    3.6266283189
N       -2.7999473004   -4.4188386630    2.2027705374
N       -2.0191807900    0.2669683889    0.9018635180
H       -3.1244379807   -2.2334867909    0.7745976242
H       -0.9323506062   -3.8297579005    4.1016235474
H       -0.2424738757    0.0864454128    3.0634123683
H       -4.7972309949   -3.7333418353    2.0601959446
H       -4.3409980492   -4.2555083407    3.6996777430
H       -4.6142674651   -5.4538706737    2.4035376188
H       -3.6729737464    1.4902495822    0.3459656671
H       -4.0899102515   -0.2133510164    0.6649761269
H       -3.7181151269    0.8730071681    2.0280453038
H       -1.8595704868    0.7664804089   -1.1641510823
H       -0.6131780119   -0.3719038599   -0.5605851896
H       -2.2775847508   -0.9384286538   -0.8471464998
H       -1.4882819698    2.2887881687    0.5790607907
H       -1.4670753444    1.7935334094    2.2898777124
H       -0.1567416136    1.2737913020    1.1843998391
H       -2.2908406452   -5.1760961359    2.6531164154
28   
Generated by ForceBalance from scan.xyz: Frame 20 of 24
C       -2.4020534149   -2.1157734999    1.6424345372
C       -1.1120241685   -2.9945446543    3.4652043621
C       -0.7368405701   -0.8172960962    2.8211686687
C       -2.0971990009   -3.2073191006    2.4699540949
C       -1.7092465096   -0.9183572401    1.8263698266
C       -4.2172374081   -4.4690464370    2.4727363541
C       -3.4864864058    0.6181416604    1.0585345182
C       -1.7346018615   -0.1487048860   -0.5207653294
C       -1.2030010086    1.4662404354    1.2331716172
N       -0.4520871667   -1.8540325701    3.6215020596
N       -2.7506573734   -4.4280894972    2.3274065113
N       -2.0263030415    0.2403702066    0.9151597251
H       -3.1500763682   -2.2424035398    0.8670488414
H       -0.8507249534   -3.8032497259    4.1477011584
H       -0.1739146084    0.0887662349    3.0137387138
H       -4.6953102188   -3.8866245680    1.6814390097
H       -4.5524396256   -4.0883710397    3.4464263469
H       -4.5462517367   -5.5032101159    2.3581138748
H       -3.6916155832    1.4695011076    0.4088486062
H       -4.1088096599   -0.2256639121    0.7701749904
H       -3.6727104756    0.8768396478    2.1003262253
H       -1.9445101899    0.7072739430   -1.1628642402
H       -0.6855693356   -0.4339692998   -0.5914501313
H       -2.3648507901   -0.9884754998   -0.8036658513
H       -1.4925623291    2.2515918464    0.5358130754
H       -1.4087518262    1.7862934531    2.2531559772
H       -0.1465452988    1.2357422056    1.1076050484
H       -2.3169731200   -5.1384657086    2.9106692690
28   
Generated by ForceBalance from scan.xyz: Frame 21 of 24
C       -2.4007188252   -2.1063383745    1.6951373490
C       -1.0516941381   -2.9644862736    3.4881498208
C       -0.6774951635   -0.8037506308    2.7881753771
C       -2.0719569034   -3.1896620728    2.5263516046
C       -1.6840423013   -0.9148121881    1.8321594463
C       -4.1836166713   -4.4605711699    2.3054047340
C       -3.4756761875    0.6322327920    1.1194421770
C       -1.8047655035   -0.1804782342   -0.5234771393
C       -1.1771188081    1.4538632764    1.1788145928
N       -0.3801437543   -1.8297032183    3.6017953917
N       -2.7221024639   -4.4059766032    2.4426767510
N       -2.0281259028    0.2335657524    0.9174035943
H       -3.1865908089   -2.2263078011    0.9579422409
H       -0.7781475870   -3.7621453151    4.1790939807
H       -0.0966649584    0.0978220304    2.9431779404
H       -4.4927763741   -4.1469686875    1.3043590050
H       -4.6942239137   -3.8377337939    3.0515363769
H       -4.5022486583   -5.4965170111    2.4282144758
H       -3.6987420205    1.4771548486    0.4672379593
H       -4.1207284881   -0.2072860500    0.8714978283
H       -3.6120782692    0.9076721457    2.1646361377
H       -2.0330631083    0.6681043514   -1.1691177630
H       -0.7631961248   -0.4794393098   -0.6357144327
H       -2.4561861582   -1.0168486106   -0.7652658948
H       -1.4861538845    2.2308206173    0.4804025601
H       -1.3357555791    1.7939313611    2.2006662491
H       -0.1298914372    1.2070515728    1.0134588403
H       -2.3759717199   -5.0695605236    3.1278534266
28   
Generated by ForceBalance from scan.xyz: Frame 22 of 24
C       -2.4317196279   -2.1090992285    1.7666729617
C       -1.0358269669   -2.9655844640    3.5288814053
C       -0.6567958072   -0.8172420566    2.7915613002
C       -2.0928042335   -3.1872056755    2.6024048278
C       -1.6911257058   -0.9270243868    1.8681173515
C       -4.1502364877   -4.4941055027    2.1572305225
C       -3.4822368922    0.6394236142    1.1978389452
C       -1.8798227468   -0.2163219907   -0.4905319234
C       -1.1713050949    1.4263487871    1.1707507132
N       -0.3502235893   -1.8394091765    3.6099958307
N       -2.7475839451   -4.3930113699    2.5589236026
N       -2.0484947510    0.2163633035    0.9519767545
H       -3.2439814992   -2.2210955982    1.0580982170
H       -0.7509247536   -3.7602904862    4.2187644383
H       -0.0567963504    0.0761277525    2.9166099000
H       -4.2597933567   -4.3526565171    1.0771120017
H       -4.7822938258   -3.7648219558    2.6815572608
H       -4.5066470876   -5.4982829647    2.3887622667
H       -3.7138767578    1.4819053975    0.5454318940
H       -4.1478487406   -0.1922200897    0.9796400801
H       -3.5794734517    0.9261717450    2.2443549541
H       -2.1172056751    0.6285152230   -1.1378223463
H       -0.8471029855   -0.5321166259   -0.6340828106
H       -2.5511268410   -1.0453545553   -0.7009666400
H       -1.4911165381    2.1996948601    0.4731690069
H       -1.2916694517    1.7807200975    2.1929341265
H       -0.1338364094    1.1612442495    0.9751013872
H       -2.4753520231   -5.0360782830    3.2929656625
28   
Generated by ForceBalance from scan.xyz: Frame 23 of 24
C       -2.4421084149   -2.0990814687    1.8375985286
C       -0.9986536214   -2.9547096703    3.5650115841
C       -0.6086656297   -0.8243993025    2.7809114914
C       -2.1003662258   -3.1671535291    2.6863129586
C       -1.6743509643   -0.9302112018    1.8952535957
C       -4.0719015062   -4.5408849083    2.0650182499
C       -3.4580970652    0.6566850240    1.2534594749
C       -1.9233604140   -0.2544900248   -0.4680425941
C       -1.1366135685    1.4025049552    1.1428673717
N       -0.2921356290   -1.8414361361    3.6045882768
N       -2.7677483458   -4.3595137143    2.6877977552
N       -2.0400939021    0.2044158310    0.9712343998
H       -3.2794531648   -2.2038616368    1.1583181389
H       -0.7011407233   -3.7467752262    4.2526627496
H        0.0148799863    0.0570450107    2.8682757142
H       -3.9987656782   -4.4629834603    0.9745156359
H       -4.8069958611   -3.8099478314    2.4286237572
H       -4.4353626646   -5.5419708865    2.2981855162
H       -3.6948900723    1.4928995842    0.5948626139
H       -4.1444109951   -0.1661938208    1.0690670614
H       -3.5182647547    0.9612790459    2.2977121250
H       -2.1665213202    0.5834813554   -1.1221154152
H       -0.9009725638   -0.5903029550   -0.6377452341
H       -2.6145108312   -1.0753271829   -0.6434450789
H       -1.4668919052    2.1710561977    0.4448441941
H       -1.2170775349    1.7731762772    2.1631738047
H       -0.1106696277    1.1173596962    0.9170775208
H       -2.5297533555   -4.9965949583    3.4370675606
28   
Generated by ForceBalance from scan.xyz: Frame 24 of 24
C       -2.4887491707   -2.0721759457    1.8822830070
C       -1.0282864751   -2.9372882639    3.5929668620
C       -0.6084609387   -0.8261216996    2.7722370156
C       -2.1608113416   -3.1321957949    2.7479798859
C       -1.6940707610   -0.9201719521    1.9102114874
C       -4.0326595709   -4.5778156895    1.9763799012
C       -3.4513065495    0.7044552394    1.2939410498
C       -1.9890068582   -0.2692353514   -0.4559396811
C       -1.1147872874    1.3865659111    1.1096393477
N       -0.2955015228   -1.8413474724    3.6004434715
N       -2.8685040647   -4.2940494340    2.7985619309
N       -2.0539392733    0.2109862408    0.9793994528
H       -3.3399877063   -2.1676717827    1.2192165054
H       -0.7320001352   -3.7283484999    4.2823062767
H        0.0374606092    0.0411915028    2.8335726146
H       -3.7831084026   -4.5616531899    0.9078110124
H       -4.8422243434   -3.8614139037    2.1656415846
H       -4.4015914193   -5.5741044772    2.2205940125
H       -3.6849350675    1.5371787554    0.6297580640
H       -4.1632191258   -0.1030889661    1.1414847592
H       -3.4741292285    1.0251718821    2.3348370243
H       -2.2259047270    0.5669998149   -1.1144981874
H       -0.9814089125   -0.6361519562   -0.6482265847
H       -2.7076945881   -1.0718386841   -0.6023130768
H       -1.4412682552    2.1527304913    0.4072056703
H       -1.1604757416    1.7754467799    2.1252762064
H       -0.1026399753    1.0698957473    0.8643857264
H       -2.5597658672   -5.0003986667    3.4521895395
