25   
Generated by ForceBalance from scan.xyz: Frame 1 of 24
C       -0.7766985416   -1.1544628674    2.3803543056
C       -1.9752241733   -2.9140651619    3.4988741113
C       -3.1356056686   -1.5698238697    2.0306806423
C       -0.7502587208   -2.2259235393    3.2869639751
C       -1.9862238581   -0.8334880180    1.7574352617
C       -1.0541910439    0.0528863621   -0.3532246368
C       -1.5988146306    1.5946340423    1.5122265358
C       -3.3781526500    0.5566117053    0.2014126721
N       -3.1083131584   -2.5972411398    2.8954961028
N        0.3811734905   -2.5699826610    3.9870072700
N       -2.0073615371    0.3246848406    0.7928164581
H        0.1375327160   -0.5991946208    2.1932724135
H       -2.0093210054   -3.7525739901    4.1940806861
H       -4.0981734827   -1.3678938424    1.5762690392
H       -1.1045512315    0.8869533739   -1.0538076128
H       -0.0423695143   -0.0457268460    0.0326691601
H       -1.3575194914   -0.8744528796   -0.8378911252
H       -1.6481749012    2.4252518996    0.8075133280
H       -2.2861600535    1.7536037821    2.3423559151
H       -0.5843328541    1.4879774337    1.8887542808
H       -3.3077933185    1.4054673780   -0.4778282410
H       -3.6897654111   -0.3294169053   -0.3488257154
H       -4.0831855496    0.7820287563    0.9995340079
H        0.3995580572   -3.4762286801    4.4384040777
H        1.2818411213   -2.2610178435    3.6443299034
25   
Generated by ForceBalance from scan.xyz: Frame 2 of 24
C       -0.7878795595   -1.1485335450    2.3806354733
C       -1.9816255323   -2.9036337603    3.5091984710
C       -3.1449382606   -1.5729148614    2.0321234805
C       -0.7620592674   -2.2060850481    3.3015081721
C       -1.9997204752   -0.8307610949    1.7587110704
C       -1.0706380609    0.0460389441   -0.3576266697
C       -1.6174838681    1.5960577348    1.5002146412
C       -3.3954232146    0.5477256275    0.1953233212
N       -3.1141287978   -2.6001113641    2.8972420694
N        0.3708551740   -2.5489359424    4.0110033197
N       -2.0239228933    0.3216365429    0.7875091885
H        0.1273551183   -0.5988334046    2.1816932904
H       -2.0119189470   -3.7379717530    4.2092651925
H       -4.1087984414   -1.3744344278    1.5787632250
H       -1.1212869092    0.8776635817   -1.0610674027
H       -0.0586633610   -0.0506728412    0.0283758413
H       -1.3737155144   -0.8830470263   -0.8390992998
H       -1.6657710630    2.4224759217    0.7905216397
H       -2.3064966008    1.7596842110    2.3280626167
H       -0.6037152741    1.4917856348    1.8794322723
H       -3.3267437236    1.3928011561   -0.4887962281
H       -3.7057483239   -0.3418379066   -0.3498939914
H       -4.1005619548    0.7765737193    0.9923993949
H        0.4675447073   -3.5252222998    4.2666700701
H        1.2477603709   -2.1469510688    3.7007202217
25   
Generated by ForceBalance from scan.xyz: Frame 3 of 24
C       -0.7897450566   -1.1572610655    2.3896682601
C       -1.9950889805   -2.9009571036    3.5219810218
C       -3.1466620071   -1.5701522082    2.0367299345
C       -0.7750248341   -2.2051400755    3.3198151774
C       -1.9993023566   -0.8308341848    1.7657899399
C       -1.0620933552    0.0367067542   -0.3511343929
C       -1.6050442345    1.5930051403    1.5026658791
C       -3.3857519598    0.5500725275    0.1964608084
N       -3.1237478227   -2.5987151888    2.9002993419
N        0.3573255574   -2.5657503034    4.0369910328
N       -2.0163353153    0.3190756437    0.7917014610
H        0.1312772088   -0.6193094800    2.1848671300
H       -2.0295743132   -3.7309941997    4.2264903272
H       -4.1089890615   -1.3660734577    1.5821635577
H       -1.1075806481    0.8671429926   -1.0563114667
H       -0.0511689076   -0.0635356418    0.0367538615
H       -1.3685048302   -0.8918972947   -0.8314284982
H       -1.6478565430    2.4182571851    0.7912708855
H       -2.2947443840    1.7617957331    2.3289076277
H       -0.5924528741    1.4843196406    1.8839081096
H       -3.3118936994    1.3928691077   -0.4899178240
H       -3.6994407775   -0.3394429362   -0.3469593240
H       -4.0912116248    0.7846519343    0.9916219122
H        0.5406819060   -3.5630298162    4.0867614155
H        1.2038102737   -2.0648105056    3.7876502600
25   
Generated by ForceBalance from scan.xyz: Frame 4 of 24
C       -0.8014091284   -1.1601373277    2.3847556665
C       -2.0022985462   -2.9000059080    3.5240720224
C       -3.1563681134   -1.5775784136    2.0346572858
C       -0.7865402337   -2.2001867513    3.3220808699
C       -2.0121266225   -0.8338613207    1.7617170974
C       -1.0814302924    0.0280811321   -0.3604955764
C       -1.6204931760    1.5893481039    1.4902179691
C       -3.4043306446    0.5409599038    0.1921647537
N       -3.1324662414   -2.6053422206    2.8982554540
N        0.3516313695   -2.5782742720    4.0379039002
N       -2.0329454723    0.3130396604    0.7841745532
H        0.1208849452   -0.6266550547    2.1737089726
H       -2.0320174757   -3.7257734347    4.2332246231
H       -4.1196122474   -1.3747502407    1.5808406681
H       -1.1284920086    0.8570276420   -1.0673129560
H       -0.0695145693   -0.0712692409    0.0251183282
H       -1.3890583242   -0.9014580308   -0.8381968943
H       -1.6638528546    2.4121399783    0.7760290322
H       -2.3091045650    1.7614272407    2.3167050707
H       -0.6073806980    1.4816453599    1.8704439629
H       -3.3335799284    1.3825613959   -0.4960074554
H       -3.7182484319   -0.3498827464   -0.3489926654
H       -4.1080574136    0.7760669477    0.9887577046
H        0.6416958896   -3.5408774827    3.8882704461
H        1.1502619641   -1.9677440183    3.8913274646
25   
Generated by ForceBalance from scan.xyz: Frame 5 of 24
C       -0.8082561496   -1.1681003779    2.3838585210
C       -2.0121772859   -2.8997336094    3.5291734369
C       -3.1637767819   -1.5777495283    2.0392790013
C       -0.7974040099   -2.2045003270    3.3239121398
C       -2.0181030311   -0.8365147941    1.7616083092
C       -1.0874715728    0.0191380566   -0.3630174382
C       -1.6195985282    1.5848673876    1.4857050207
C       -3.4085038720    0.5401992542    0.1909953043
N       -3.1445699746   -2.6036049748    2.9034493156
N        0.3469784114   -2.6085506101    4.0364326558
N       -2.0371820792    0.3088492188    0.7820763928
H        0.1171023774   -0.6406498813    2.1705016996
H       -2.0397322361   -3.7219542849    4.2419097195
H       -4.1269598965   -1.3713990527    1.5862573821
H       -1.1319793274    0.8474869987   -1.0706877030
H       -0.0756094554   -0.0831808828    0.0221123806
H       -1.3986977277   -0.9097577963   -0.8396518506
H       -1.6601794931    2.4066144867    0.7701583266
H       -2.3070433676    1.7611411623    2.3122909672
H       -0.6065278075    1.4738399198    1.8652621241
H       -3.3356486242    1.3803202731   -0.4987686163
H       -3.7259648486   -0.3504255444   -0.3485024253
H       -4.1107998364    0.7793339436    0.9876832160
H        0.7423463340   -3.4840601187    3.7002987692
H        1.0853689198   -1.9092551376    4.0179973304
25   
Generated by ForceBalance from scan.xyz: Frame 6 of 24
C       -0.7989227850   -1.1009219980    2.3039349343
C       -1.9173993515   -2.8122994664    3.5523675770
C       -3.1624898287   -1.5384165268    2.0953237458
C       -0.7156716539   -2.1520345759    3.2226702079
C       -2.0329424030   -0.8093738032    1.7199377689
C       -1.1935698521    0.0412785366   -0.4418060937
C       -1.7009668687    1.6171845603    1.4049771061
C       -3.5081832555    0.5139075395    0.1828036549
N       -3.0956513128   -2.5143142302    3.0087280638
N        0.5226414259   -2.4058825344    3.8669153707
N       -2.1130885140    0.3231863542    0.7297046183
H        0.1075857164   -0.5429976903    2.0915579688
H       -1.9136983088   -3.6123492343    4.2921087144
H       -4.1474336330   -1.3596912550    1.6779037528
H       -1.2778112109    0.8614798197   -1.1552541776
H       -0.1686751846   -0.0365187429   -0.0865667213
H       -1.5000175810   -0.8984554329   -0.9000485308
H       -1.7856412531    2.4288031059    0.6817345169
H       -2.3638449199    1.7874035130    2.2526052574
H       -0.6731469372    1.5335879931    1.7504610951
H       -3.4774264352    1.3396202805   -0.5272047256
H       -3.8257826859   -0.3953077975   -0.3250585559
H       -4.1874337043    0.7576833916    0.9978553632
H        1.0999602559   -3.0645951688    3.3448139381
H        0.3689726427   -2.8280223787    4.7817332686
25   
Generated by ForceBalance from scan.xyz: Frame 7 of 24
C       -0.7976954647   -1.1046200033    2.3164566644
C       -1.9302532302   -2.8078962481    3.5667243819
C       -3.1642633866   -1.5335403513    2.0999492978
C       -0.7212873966   -2.1553141292    3.2395677449
C       -2.0289468680   -0.8121979150    1.7279738879
C       -1.1813352746    0.0283679883   -0.4351952706
C       -1.6853376948    1.6124027370    1.4057110746
C       -3.4942699803    0.5137840719    0.1834653801
N       -3.1028881734   -2.5060834747    3.0180772455
N        0.4911851236   -2.4148503541    3.9051526529
N       -2.1011280607    0.3179648589    0.7338460474
H        0.1073795332   -0.5447496948    2.1025404659
H       -1.9333456189   -3.6056480384    4.3091175480
H       -4.1464840301   -1.3536067037    1.6774726958
H       -1.2618504230    0.8458093594   -1.1522589669
H       -0.1571245684   -0.0514494137   -0.0785085463
H       -1.4903163114   -0.9122818066   -0.8898322926
H       -1.7665268718    2.4222644202    0.6800958303
H       -2.3484998505    1.7870680307    2.2521976800
H       -0.6582749892    1.5267013365    1.7527413665
H       -3.4581688745    1.3381692665   -0.5278330545
H       -3.8146145534   -0.3949581597   -0.3234122757
H       -4.1741135837    0.7616675018    0.9967077847
H        1.1867729916   -2.8697247331    3.3168730433
H        0.3497256867   -3.0107905364    4.7183450608
25   
Generated by ForceBalance from scan.xyz: Frame 8 of 24
C       -0.8060413745   -1.1050438847    2.3190589770
C       -1.9473320951   -2.8026265871    3.5736910606
C       -3.1763364752   -1.5264811037    2.1046066004
C       -0.7336999364   -2.1519254384    3.2491955807
C       -2.0381937968   -0.8108630289    1.7328351671
C       -1.1903653414    0.0179738037   -0.4357914414
C       -1.6870606792    1.6113959302    1.3991381300
C       -3.5001870100    0.5133927243    0.1837968619
N       -3.1162207667   -2.4995850541    3.0235148620
N        0.4580551614   -2.4243997447    3.9229664758
N       -2.1070272624    0.3152829740    0.7335168993
H        0.0983641987   -0.5477003276    2.0952354473
H       -1.9526865567   -3.6007381437    4.3157481940
H       -4.1579600801   -1.3445264974    1.6824079751
H       -1.2697320011    0.8324554561   -1.1563550033
H       -0.1656759417   -0.0634379981   -0.0810316728
H       -1.5029934079   -0.9237850033   -0.8856008292
H       -1.7670222556    2.4184781059    0.6702822640
H       -2.3486741879    1.7911949710    2.2457512881
H       -0.6599015364    1.5246013188    1.7454966000
H       -3.4619002391    1.3344474271   -0.5312348318
H       -3.8241518100   -0.3966000266   -0.3184059861
H       -4.1781003344    0.7670699862    0.9968085929
H        1.2440183223   -2.6638343822    3.3247744549
H        0.3561908485   -3.1441133477    4.6336535258
25   
Generated by ForceBalance from scan.xyz: Frame 9 of 24
C       -0.8021180298   -1.1125258548    2.3300684780
C       -1.9557318274   -2.8115310961    3.5753279849
C       -3.1742733040   -1.5265668409    2.1029530546
C       -0.7378996015   -2.1560207393    3.2654931845
C       -2.0330072696   -0.8128778386    1.7419617082
C       -1.1798576430    0.0026552356   -0.4297443348
C       -1.6623448959    1.6057383772    1.4007217239
C       -3.4846322595    0.5195257799    0.1900508662
N       -3.1177484161   -2.5068908135    3.0167281775
N        0.4351705104   -2.4473238458    3.9455922111
N       -2.0927825373    0.3111004172    0.7395036745
H        0.1040585718   -0.5606944434    2.0992896787
H       -1.9653944619   -3.6147062098    4.3119184131
H       -4.1539276772   -1.3404444048    1.6786497971
H       -1.2551166139    0.8142062793   -1.1540805900
H       -0.1551561093   -0.0837585801   -0.0762419118
H       -1.4991409252   -0.9392854496   -0.8744243305
H       -1.7374535699    2.4114125875    0.6698045177
H       -2.3213170388    1.7926523985    2.2478528881
H       -0.6353705523    1.5126772094    1.7458454546
H       -3.4404215162    1.3407609427   -0.5244326742
H       -3.8150876959   -0.3877151236   -0.3127466656
H       -4.1604341730    0.7771122363    1.0035720094
H        1.2829007401   -2.4717383104    3.3885575663
H        0.3810272894   -3.2622937698    4.5485187204
25   
Generated by ForceBalance from scan.xyz: Frame 10 of 24
C       -0.8079159099   -1.1165634594    2.3269021633
C       -1.9669996145   -2.8141012982    3.5734462051
C       -3.1833148117   -1.5225822387    2.1045328702
C       -0.7471786884   -2.1542111603    3.2701310188
C       -2.0411086043   -0.8114366833    1.7449049959
C       -1.1911189424   -0.0059776151   -0.4324438148
C       -1.6611915494    1.6043822817    1.3948752759
C       -3.4912569788    0.5224149435    0.1928657174
N       -3.1261332891   -2.5090228095    3.0132244966
N        0.4160872236   -2.4673583706    3.9399304299
N       -2.0987352970    0.3096924412    0.7389724867
H        0.1001399156   -0.5733273748    2.0830794949
H       -1.9768066031   -3.6201533621    4.3068051027
H       -4.1636714663   -1.3315965919    1.6845331288
H       -1.2657540982    0.8035925656   -1.1590659506
H       -0.1654725155   -0.0954775222   -0.0826236118
H       -1.5157441923   -0.9480899971   -0.8728429010
H       -1.7352285500    2.4083708305    0.6619794134
H       -2.3167886807    1.7963200185    2.2435012540
H       -0.6336201776    1.5080432487    1.7372847836
H       -3.4455351229    1.3413672313   -0.5241476700
H       -3.8269318413   -0.3849362458   -0.3061705460
H       -4.1635483691    0.7850767153    1.0076502178
H        1.2960961231   -2.2978648772    3.4679551723
H        0.4149249710   -3.3314086464    4.4697368913
25   
Generated by ForceBalance from scan.xyz: Frame 11 of 24
C       -0.8072452892   -1.1237125243    2.3250662684
C       -1.9710695306   -2.8259282983    3.5644160642
C       -3.1844362859   -1.5238028277    2.1010187910
C       -0.7499028757   -2.1593660534    3.2715763123
C       -2.0415940342   -0.8124216669    1.7472701896
C       -1.1962274584   -0.0153023595   -0.4347282719
C       -1.6468209701    1.6007520058    1.3924021566
C       -3.4895214317    0.5301461824    0.2006471911
N       -3.1270214916   -2.5189165249    3.0019273879
N        0.4078725127   -2.4980258499    3.9229907227
N       -2.0960205449    0.3083633814    0.7405716172
H        0.1031069158   -0.5883779942    2.0725486662
H       -1.9809087938   -3.6376668718    4.2914304577
H       -4.1651877012   -1.3273474699    1.6848377390
H       -1.2694552574    0.7931719539   -1.1627448897
H       -0.1694509211   -0.1107480041   -0.0898345057
H       -1.5289241181   -0.9563763797   -0.8712675040
H       -1.7188924168    2.4042752386    0.6587962497
H       -2.2971138745    1.7982842177    2.2438283171
H       -0.6183306401    1.4981198359    1.7300784618
H       -3.4418479657    1.3495122073   -0.5157768784
H       -3.8328306779   -0.3745606936   -0.2978826923
H       -4.1565985235    0.7957216239    1.0187799161
H        1.2976747163   -2.1638241315    3.5780744242
H        0.4435664539   -3.3722116063    4.4312070853
25   
Generated by ForceBalance from scan.xyz: Frame 12 of 24
C       -0.8147997142   -1.1190990057    2.3183738251
C       -1.9223736418   -2.9726637357    3.3821073485
C       -3.1548335847   -1.6351212053    1.9678266705
C       -0.7301101531   -2.2206993610    3.1866861242
C       -2.0428344939   -0.8380152119    1.7126174783
C       -1.1627387777    0.1574206958   -0.3718480053
C       -1.7789550170    1.6131776427    1.5396180074
C       -3.5070124037    0.5262341197    0.2005333016
N       -3.0728058791   -2.6881207384    2.7986464035
N        0.4273754369   -2.5691700727    3.8204011833
N       -2.1248555213    0.3464773496    0.7833870373
H        0.0710617241   -0.5166721453    2.1415859178
H       -1.9110269280   -3.8365330489    4.0462901491
H       -4.1291476677   -1.4641367134    1.5263354741
H       -1.2559598151    1.0094399368   -1.0459372215
H       -0.1461733879    0.0960018361    0.0090421162
H       -1.4218458083   -0.7682053830   -0.8846138612
H       -1.8705918202    2.4609720668    0.8599831537
H       -2.4720683581    1.7131753843    2.3741443342
H       -0.7598184039    1.5457437656    1.9126543801
H       -3.4807160957    1.3959701960   -0.4550420752
H       -3.7756057047   -0.3588884923   -0.3733061525
H       -4.2202281207    0.6941803789    1.0054748029
H        1.2842695410   -2.0497480644    3.6957561604
H        0.4572095260   -3.3663083617    4.4405957753
25   
Generated by ForceBalance from scan.xyz: Frame 13 of 24
C       -0.8050993865   -1.1314714868    2.3156483730
C       -1.9144545926   -2.9914644156    3.3627024808
C       -3.1463384418   -1.6374003230    1.9636705302
C       -0.7212799352   -2.2428368564    3.1698188455
C       -2.0323677592   -0.8416814666    1.7121521517
C       -1.1552029479    0.1520144066   -0.3730064743
C       -1.7499183606    1.6085964939    1.5447357469
C       -3.4939106427    0.5390432882    0.2125675381
N       -3.0666885031   -2.6967146628    2.7861954137
N        0.4527764938   -2.6281488708    3.7638780999
N       -2.1101633241    0.3465385806    0.7876684337
H        0.0833404932   -0.5322188681    2.1405517049
H       -1.9036705528   -3.8629743567    4.0168405653
H       -4.1210603562   -1.4592157853    1.5256825279
H       -1.2447957944    1.0062636894   -1.0447621628
H       -0.1373768945    0.0810803782    0.0029793036
H       -1.4244060989   -0.7704000706   -0.8863354010
H       -1.8374324358    2.4584245769    0.8671434583
H       -2.4383009176    1.7131453852    2.3826342171
H       -0.7294865180    1.5321642741    1.9124203939
H       -3.4648978681    1.4124978490   -0.4379188335
H       -3.7711434302   -0.3405878371   -0.3655765223
H       -4.2021980919    0.7067866292    1.0219375206
H        1.2402748818   -1.9941494797    3.7833722662
H        0.4183569643   -3.2952794889    4.5238511345
25   
Generated by ForceBalance from scan.xyz: Frame 14 of 24
C       -0.7975045059   -1.1347756838    2.3159028437
C       -1.9047354633   -2.9984780429    3.3558120936
C       -3.1381579051   -1.6390972402    1.9631005378
C       -0.7166219394   -2.2434789651    3.1727026485
C       -2.0247152247   -0.8397609298    1.7163515575
C       -1.1537469015    0.1434690448   -0.3756439189
C       -1.7271210980    1.6085430629    1.5421892414
C       -3.4867318963    0.5476620416    0.2236358412
N       -3.0573662035   -2.7040572424    2.7765040555
N        0.4727750928   -2.6402858205    3.7453079825
N       -2.1006665919    0.3472317602    0.7904347330
H        0.0953274794   -0.5441347753    2.1339608794
H       -1.8932682400   -3.8751099570    4.0031506187
H       -4.1137588248   -1.4565012555    1.5284744658
H       -1.2415523204    0.9968555944   -1.0487363668
H       -0.1342509878    0.0662958767   -0.0053326383
H       -1.4323018643   -0.7782387906   -0.8852224359
H       -1.8117210271    2.4570546435    0.8626268532
H       -2.4104245188    1.7208480909    2.3832598155
H       -0.7053056321    1.5256249059    1.9045761492
H       -3.4570360759    1.4219190834   -0.4257310776
H       -3.7718640899   -0.3293742695   -0.3545791658
H       -4.1894827835    0.7176412666    1.0374324317
H        1.1677872162   -1.9288524510    3.9369016642
H        0.4115154783   -3.3366767146    4.4791968985
25   
Generated by ForceBalance from scan.xyz: Frame 15 of 24
C       -0.7965183370   -1.1316387596    2.3051199627
C       -1.8933331012   -2.9941388338    3.3525743611
C       -3.1377981018   -1.6372102585    1.9691374737
C       -0.7119346959   -2.2326642488    3.1704752366
C       -2.0272080400   -0.8343341086    1.7155563103
C       -1.1672274528    0.1418454292   -0.3846937717
C       -1.7309001467    1.6127283397    1.5315870849
C       -3.4975049928    0.5469612472    0.2252909005
N       -3.0506199059   -2.7050743047    2.7760350830
N        0.4976520317   -2.6291267741    3.7208907185
N       -2.1084741382    0.3491008451    0.7856513380
H        0.0994073759   -0.5502300106    2.1096378354
H       -1.8766318306   -3.8727192358    3.9972193754
H       -4.1170055586   -1.4535635664    1.5427075702
H       -1.2589103526    0.9931591184   -1.0598633821
H       -0.1457396533    0.0664266575   -0.0195674943
H       -1.4480712277   -0.7814891016   -0.8900579972
H       -1.8189482832    2.4591946088    0.8499112062
H       -2.4097376365    1.7278804246    2.3758946400
H       -0.7071156079    1.5303600928    1.8886789207
H       -3.4712045837    1.4179201828   -0.4286257446
H       -3.7859496333   -0.3328402889   -0.3470931740
H       -4.1959563698    0.7213746262    1.0418976748
H        1.0853643583   -1.8906790563    4.0934291092
H        0.4286036885   -3.3975577664    4.3807069621
25   
Generated by ForceBalance from scan.xyz: Frame 16 of 24
C       -0.8007901606   -1.1213068856    2.2993497214
C       -1.8838911918   -2.9883449965    3.3479181698
C       -3.1384986634   -1.6387823587    1.9688416584
C       -0.7118172292   -2.2159085735    3.1712893543
C       -2.0332971051   -0.8268147627    1.7140280472
C       -1.1864275977    0.1377958016   -0.3964926090
C       -1.7364279508    1.6188555426    1.5157385671
C       -3.5130791111    0.5477829480    0.2269775781
N       -3.0449466892   -2.7090090850    2.7693420153
N        0.5175190719   -2.5979919309    3.7109529120
N       -2.1204208381    0.3518403309    0.7787414082
H        0.0973393945   -0.5457973700    2.0972847381
H       -1.8606545323   -3.8695595782    3.9886838774
H       -4.1198023490   -1.4582938637    1.5452719038
H       -1.2808218100    0.9863422656   -1.0747737961
H       -0.1629503891    0.0622784866   -0.0368456526
H       -1.4718214853   -0.7872235335   -0.8961959265
H       -1.8256700535    2.4615042124    0.8295388706
H       -2.4110949384    1.7407311388    2.3624648898
H       -0.7111176677    1.5360449778    1.8683727958
H       -3.4916981536    1.4176265372   -0.4286000742
H       -3.8047152869   -0.3329077220   -0.3424423432
H       -4.2064818750    0.7230542445    1.0477823612
H        0.9798296790   -1.8869556717    4.2709510644
H        0.4633396552   -3.4569694313    4.2519363589
25   
Generated by ForceBalance from scan.xyz: Frame 17 of 24
C       -0.7939273117   -1.1165265229    2.3020515457
C       -1.8719108574   -2.9786204378    3.3592077218
C       -3.1307991645   -1.6329755460    1.9798632670
C       -0.7044825608   -2.2043945657    3.1798175232
C       -2.0267796818   -0.8201407242    1.7189271149
C       -1.1825837142    0.1322546411   -0.3978604098
C       -1.7251928193    1.6230667490    1.5087515469
C       -3.5077265069    0.5498082883    0.2286456975
N       -3.0361926094   -2.7020412897    2.7803073882
N        0.5444852651   -2.5703372308    3.7151846717
N       -2.1142481736    0.3537035155    0.7780723274
H        0.1086160717   -0.5494833895    2.0964947245
H       -1.8463968582   -3.8595003044    4.0002728166
H       -4.1132471795   -1.4528984915    1.5579771684
H       -1.2763500686    0.9780604233   -1.0796278203
H       -0.1586765122    0.0563160588   -0.0394143042
H       -1.4708279237   -0.7942508135   -0.8931723626
H       -1.8135639654    2.4628031832    0.8188925650
H       -2.3977492797    1.7507457977    2.3563084551
H       -0.6992783590    1.5386489467    1.8594274608
H       -3.4863025168    1.4164255277   -0.4311839449
H       -3.8025956738   -0.3328759502   -0.3360816991
H       -4.1989541522    0.7306039705    1.0501540002
H        0.8712040662   -1.9420875277    4.4468836840
H        0.5193746681   -3.5071353686    4.1129490888
25   
Generated by ForceBalance from scan.xyz: Frame 18 of 24
C       -0.7980526804   -1.1043249977    2.2999028543
C       -1.8659693374   -2.9627549864    3.3695675787
C       -3.1319743925   -1.6292084619    1.9857704434
C       -0.7038928882   -2.1863612560    3.1809106706
C       -2.0322388305   -0.8130114029    1.7161402889
C       -1.1957011813    0.1300245040   -0.4071744224
C       -1.7351734891    1.6290382204    1.4937389859
C       -3.5205348287    0.5467342250    0.2240758149
N       -3.0347905972   -2.6931598740    2.7918188983
N        0.5632987881   -2.5242822633    3.7221566104
N       -2.1250852318    0.3556509768    0.7699443804
H        0.1058007283   -0.5388610661    2.0963319708
H       -1.8357350159   -3.8398724574    4.0153705063
H       -4.1156221629   -1.4548084077    1.5634920923
H       -1.2914061438    0.9731282767   -1.0920041485
H       -0.1710668160    0.0562389683   -0.0501829027
H       -1.4844247669   -0.7984903521   -0.8984531733
H       -1.8250881599    2.4650671241    0.7996162979
H       -2.4063784526    1.7608966984    2.3417332960
H       -0.7085790310    1.5466690898    1.8429889001
H       -3.5031844749    1.4109691730   -0.4389904222
H       -3.8153256880   -0.3385133310   -0.3367745188
H       -4.2097477385    0.7291655880    1.0469799648
H        0.7501854933   -2.0361381982    4.5977015103
H        0.6049323812   -3.5192963958    3.9387717704
25   
Generated by ForceBalance from scan.xyz: Frame 19 of 24
C       -0.7918166522   -1.2052769089    2.3532325133
C       -1.9855007748   -2.9912863687    3.4233226643
C       -3.1549817490   -1.5852367637    2.0272495857
C       -0.7597299255   -2.3237626938    3.1931968376
C       -2.0027176067   -0.8573966794    1.7418029233
C       -1.0839928320    0.0655323430   -0.3564668937
C       -1.6015102847    1.5739744272    1.5433953627
C       -3.4006397832    0.5743331657    0.2282100472
N       -3.1362427183   -2.6284259162    2.8705306221
N        0.4010150032   -2.7908079480    3.8384168767
N       -2.0262027254    0.3215197535    0.8030480107
H        0.1234439711   -0.6441458416    2.1875972600
H       -2.0031357412   -3.8572552075    4.0825535270
H       -4.1208464417   -1.3613736621    1.5884671088
H       -1.1300220339    0.9161324900   -1.0371111683
H       -0.0706671486   -0.0531229413    0.0200640740
H       -1.4006300070   -0.8470322716   -0.8603121166
H       -1.6468049519    2.4181172336    0.8546880764
H       -2.2824170152    1.7247754786    2.3803627513
H       -0.5851587883    1.4512500099    1.9103255039
H       -3.3296877840    1.4343676019   -0.4367615128
H       -3.7241009761   -0.2993507351   -0.3349735073
H       -4.0972285154    0.7921316925    1.0359104869
H        0.4209230653   -2.5747692893    4.8329179721
H        1.2522348218   -2.4167638105    3.4256840002
25   
Generated by ForceBalance from scan.xyz: Frame 20 of 24
C       -0.7826096498   -1.2021021592    2.3484290678
C       -1.9773950691   -2.9847369090    3.4268044849
C       -3.1485341083   -1.5802643467    2.0287373192
C       -0.7488579470   -2.3179828903    3.1932761824
C       -1.9956952004   -0.8556195231    1.7409854137
C       -1.0807990901    0.0610904101   -0.3616404032
C       -1.5905580300    1.5746744490    1.5363304212
C       -3.3946022547    0.5754380820    0.2282222871
N       -3.1263359428   -2.6222675342    2.8751850301
N        0.4142541863   -2.7833519499    3.8120828754
N       -2.0191878281    0.3213762460    0.7999484041
H        0.1320519663   -0.6420664935    2.1765230565
H       -1.9990390169   -3.8489070434    4.0889281043
H       -4.1154302569   -1.3571627203    1.5926021455
H       -1.1280798750    0.9097882081   -1.0445844440
H       -0.0664888410   -0.0578862011    0.0120072537
H       -1.4000469386   -0.8526259477   -0.8617163830
H       -1.6371243095    2.4174918681    0.8460783084
H       -2.2685925836    1.7277839133    2.3752020002
H       -0.5732850830    1.4514613155    1.9003899464
H       -3.3240006129    1.4343732588   -0.4382033773
H       -3.7207256206   -0.2986939418   -0.3326634644
H       -4.0887205135    0.7952306800    1.0374661244
H        0.3729687545   -2.7897287867    4.8278146315
H        1.2551342249   -2.2921338903    3.5223444024
25   
Generated by ForceBalance from scan.xyz: Frame 21 of 24
C       -0.7749106113   -1.1968590523    2.3460549999
C       -1.9703089922   -2.9749325345    3.4328732984
C       -3.1426893959   -1.5762278957    2.0281087945
C       -0.7403027318   -2.3067059644    3.2006195452
C       -1.9893550461   -0.8522667741    1.7416998873
C       -1.0778434302    0.0571215138   -0.3657719050
C       -1.5814080358    1.5770391505    1.5289794435
C       -3.3893964071    0.5758740444    0.2283054102
N       -3.1168286853   -2.6171901020    2.8766018433
N        0.4249094403   -2.7671187363    3.7987251885
N       -2.0129422959    0.3220531110    0.7974078094
H        0.1401566190   -0.6403687613    2.1656358113
H       -1.9958146198   -3.8358942846    4.0996321750
H       -4.1101341053   -1.3539643798    1.5932577747
H       -1.1267962609    0.9032826543   -1.0517545225
H       -0.0625419532   -0.0610859174    0.0052906005
H       -1.3989177225   -0.8583663169   -0.8613991626
H       -1.6294856395    2.4179318894    0.8364815565
H       -2.2569714175    1.7327995270    2.3693527105
H       -0.5632960998    1.4542329171    1.8906586301
H       -3.3197523271    1.4333515927   -0.4400909199
H       -3.7173201179   -0.2992938803   -0.3298567784
H       -4.0813912321    0.7974826456    1.0388574260
H        0.3452150402   -2.9960001768    4.7847004117
H        1.2473989801   -2.1949989751    3.6372870815
25   
Generated by ForceBalance from scan.xyz: Frame 22 of 24
C       -0.7692427975   -1.1893105593    2.3459459841
C       -1.9642645314   -2.9640529464    3.4425725519
C       -3.1375308621   -1.5729357956    2.0301418925
C       -0.7350951327   -2.2907470709    3.2135374754
C       -1.9848747690   -0.8469301934    1.7448909198
C       -1.0754378550    0.0534349388   -0.3679069014
C       -1.5754020832    1.5809035661    1.5216425208
C       -3.3854900490    0.5763145420    0.2269848860
N       -3.1083700502   -2.6137799796    2.8788011982
N        0.4308442821   -2.7417667711    3.7993172741
N       -2.0086726736    0.3234961820    0.7955381318
H        0.1470420955   -0.6384472085    2.1551891905
H       -1.9916677030   -3.8217671638    4.1139392160
H       -4.1058203338   -1.3519966245    1.5970097348
H       -1.1255240347    0.8965993922   -1.0575029193
H       -0.0595399321   -0.0632864153    0.0018934853
H       -1.3974804248   -0.8642150033   -0.8588678021
H       -1.6242749130    2.4192719613    0.8261360720
H       -2.2495077728    1.7399624669    2.3625699473
H       -0.5568677264    1.4587154432    1.8822885264
H       -3.3158381424    1.4313400639   -0.4445500616
H       -3.7146492610   -0.3005653815   -0.3276748864
H       -4.0764084909    0.8011669135    1.0375392302
H        0.3379592086   -3.1818347830    4.7080609397
H        1.2334035926   -2.1244157752    3.7568710873
25   
Generated by ForceBalance from scan.xyz: Frame 23 of 24
C       -0.7691058571   -1.1780214094    2.3427677894
C       -1.9597771210   -2.9491367750    3.4511135269
C       -3.1390670206   -1.5691599166    2.0324174013
C       -0.7329844679   -2.2685311409    3.2259214290
C       -1.9878447961   -0.8401491552    1.7472802704
C       -1.0839894612    0.0520968089   -0.3720288409
C       -1.5825070041    1.5866273403    1.5120306874
C       -3.3934825479    0.5735879839    0.2251854884
N       -3.1033853405   -2.6099785784    2.8806596943
N        0.4328292038   -2.7064918164    3.8073997542
N       -2.0151850698    0.3255631103    0.7921598129
H        0.1476644606   -0.6327437653    2.1392171999
H       -1.9856673439   -3.8036249601    4.1269367609
H       -4.1089793405   -1.3505139764    1.6019885390
H       -1.1369980420    0.8922663904   -1.0650605618
H       -0.0670775610   -0.0613790550   -0.0040954490
H       -1.4056877273   -0.8681400414   -0.8583440121
H       -1.6338431423    2.4219980220    0.8130884669
H       -2.2553128445    1.7481977416    2.3535206978
H       -0.5632721281    1.4670349841    1.8715865513
H       -3.3264508189    1.4255049667   -0.4505606974
H       -3.7224521558   -0.3064382355   -0.3245364964
H       -4.0830574623    0.8011424602    1.0361180936
H        0.3581598103   -3.3345375007    4.5982524629
H        1.2226494935   -2.0755854648    3.8551591427
25   
Generated by ForceBalance from scan.xyz: Frame 24 of 24
C       -0.7899924786   -1.1561564402    2.3484256758
C       -1.9749851970   -2.9185797931    3.4811231440
C       -3.1567770561   -1.5652512936    2.0377198659
C       -0.7497904203   -2.2325649964    3.2507136308
C       -2.0094886593   -0.8333864584    1.7461469003
C       -1.0994229560    0.0581556104   -0.3726882378
C       -1.6345522394    1.5962117412    1.4982365565
C       -3.4200454394    0.5508149787    0.2014373318
N       -3.1165148357   -2.5951066250    2.9002138269
N        0.3965415155   -2.6184471408    3.8833526084
N       -2.0436024409    0.3250989004    0.7819039499
H        0.1226827605   -0.6051434487    2.1426870135
H       -1.9984559962   -3.7614590625    4.1714688999
H       -4.1267362293   -1.3591631734    1.6016272910
H       -1.1574977716    0.8940136376   -1.0705075288
H       -0.0840910091   -0.0397161732    0.0037549342
H       -1.4050215569   -0.8685629227   -0.8571136015
H       -1.6910934419    2.4269041595    0.7940799528
H       -2.3169397766    1.7529273881    2.3328696236
H       -0.6173299135    1.4919977766    1.8681425774
H       -3.3571954628    1.3950643667   -0.4842824488
H       -3.7350982055   -0.3398033692   -0.3393104303
H       -4.1182282167    0.7808531473    1.0041975231
H        0.3938955458   -3.3970670130    4.5273565882
H        1.2747214152   -2.1409035494    3.7408287055
