23   
Generated by ForceBalance from scan.xyz: Frame 1 of 24
C        2.1049505232   -0.6712275699    0.0182538707
C        1.0503136106   -0.0641242983    0.6661866722
C        4.6931050801   -3.4539411048    0.3457699669
C        4.5602413033   -1.6601958288   -1.2598337876
C        1.5388690102   -1.3740941829    2.6570703942
C        5.7468824716   -3.9771239899   -0.3672285652
C        5.6182691345   -2.2140555015   -1.9396676436
C        2.9205524750   -1.6624604735    0.6318145305
C        4.0404151414   -2.2627653077   -0.0798392994
C        0.7577070723   -0.4101882971    2.0017274054
C        2.5806277338   -1.9695274242    1.9699396160
N        6.1937852436   -3.3587932493   -1.4899150576
O       -0.2800110726    0.2186918728    2.5846018319
F        3.3160675141   -2.8664708079    2.6640541865
H        2.2768747170   -0.4004671304   -1.0169506306
H        0.4301917486    0.6736032572    0.1682617757
H        4.3674614607   -3.9907690094    1.2237847528
H        4.1605012145   -0.7305133965   -1.6421626778
H        1.3586851731   -1.6610383315    3.6893821176
H        6.2567919465   -4.8887265978   -0.0770028207
H        6.0421609516   -1.7724520561   -2.8342730386
H        6.9774835057   -3.7570310998   -2.0005334551
H       -0.4101426609   -0.0851933112    3.4994651120
23   
Generated by ForceBalance from scan.xyz: Frame 2 of 24
C        2.0486468259   -0.7446596471   -0.0218033518
C        0.9676876968   -0.1725926449    0.6181278965
C        4.5995633772   -3.4956640019    0.2833750773
C        4.6588921571   -1.5717665949   -1.1769376073
C        1.6125607493   -1.2935616510    2.6837874243
C        5.6369186390   -4.0416882248   -0.4372358142
C        5.6973703749   -2.1520505994   -1.8675265624
C        2.9484624924   -1.6187313341    0.6425440228
C        4.0661347205   -2.2261795286   -0.0647345452
C        0.7443980855   -0.4390426097    1.9848204278
C        2.6723902694   -1.8648765657    2.0038785734
N        6.1674082996   -3.3691255043   -1.4913549324
O       -0.3207766356    0.1554823469    2.5572858368
F        3.5007020209   -2.6638490827    2.7136878775
H        2.1802180296   -0.5496922133   -1.0812440591
H        0.2743973831    0.4738288006    0.0906341662
H        4.1935588699   -4.0664811462    1.1070694102
H        4.3322917858   -0.5855725412   -1.4836929521
H        1.4825101992   -1.5122058185    3.7400860744
H        6.0645560767   -5.0124584306   -0.2137167570
H        6.1876134311   -1.6782828235   -2.7103418807
H        6.9372456222   -3.7855029180   -2.0088976321
H       -0.3995758958   -0.0876651234    3.4956917202
23   
Generated by ForceBalance from scan.xyz: Frame 3 of 24
C        2.0172333605   -0.8146518304   -0.0382900729
C        0.9081975709   -0.2875770866    0.5965229014
C        4.5202077615   -3.5165754418    0.2287510989
C        4.7667988406   -1.5070109514   -1.0933705152
C        1.6831035307   -1.2213346527    2.7135603617
C        5.5323702822   -4.0933009955   -0.5050390462
C        5.7758919336   -2.1199599303   -1.8023499322
C        2.9950641633   -1.5606666099    0.6638241032
C        4.1097071494   -2.1862646547   -0.0376083766
C        0.7396721486   -0.4792698726    1.9827873192
C        2.7648720095   -1.7564631212    2.0382831748
N        6.1396532041   -3.3914326379   -1.4972407353
O       -0.3551003629    0.0721780971    2.5462196557
F        3.6650044096   -2.4692671649    2.7533588325
H        2.1201459995   -0.6808357256   -1.1111799037
H        0.1524244447    0.2652898924    0.0488460852
H        4.0433286418   -4.1015668778    1.0049740321
H        4.5087105974   -0.4829245172   -1.3381585930
H        1.5894249933   -1.3834789147    3.7838647183
H        5.8758750275   -5.1092364900   -0.3464683906
H        6.3211346309   -1.6344988296   -2.6037889379
H        6.8877290962   -3.8320135281   -2.0270204097
H       -0.3916250484   -0.1125842007    3.5002120824
23   
Generated by ForceBalance from scan.xyz: Frame 4 of 24
C        1.9785724509   -0.9002752091   -0.0571921061
C        0.8521387609   -0.4088275820    0.5803933113
C        4.4320884137   -3.5323290781    0.1516751142
C        4.8809024513   -1.4612483859   -1.0122327372
C        1.7557217072   -1.1356885777    2.7278815265
C        5.4271332332   -4.1370485290   -0.5855271749
C        5.8681136996   -2.1025833557   -1.7308895050
C        3.0289401857   -1.5106495566    0.6647631119
C        4.1444455874   -2.1591990345   -0.0278501093
C        0.7415914948   -0.5125078610    1.9807439498
C        2.8519069572   -1.6411142089    2.0511558657
N        6.1220485807   -3.4151815460   -1.5024198594
O       -0.3732086834    0.0020132909    2.5445873298
F        3.8177072067   -2.2635768482    2.7664292240
H        2.0468537732   -0.8329938884   -1.1394448930
H        0.0416826532    0.0484987545    0.0228070789
H        3.8772037198   -4.1248802627    0.8695036565
H        4.6965338136   -0.4083318542   -1.1952447449
H        1.7024643126   -1.2337317564    3.8087311265
H        5.6855242820   -5.1858210968   -0.4923485933
H        6.4765414960   -1.6105800874   -2.4813316544
H        6.8539540355   -3.8756635925   -2.0385408576
H       -0.3648400984   -0.1157898491    3.5095620261
23   
Generated by ForceBalance from scan.xyz: Frame 5 of 24
C        1.8837145949   -1.0355901072   -0.0726713853
C        0.7621284890   -0.5504130635    0.5835151010
C        4.3145057447   -3.5576383440    0.0240646098
C        4.9802566396   -1.4253429274   -0.8972038340
C        1.8184142960   -1.0178151735    2.7303969852
C        5.3263291052   -4.1612169740   -0.6952826334
C        5.9805746920   -2.0645213951   -1.6044210704
C        3.0031361551   -1.5057955059    0.6436463302
C        4.1320609564   -2.1602767035   -0.0435791124
C        0.7298571536   -0.5284970340    1.9901567916
C        2.9110467310   -1.5176047310    2.0399779118
N        6.1313020290   -3.4056960113   -1.4839271235
O       -0.3869815097   -0.0281479195    2.5690843672
F        3.9519603006   -2.0218075664    2.7455126828
H        1.8962460407   -1.0608480165   -1.1589206862
H       -0.1010679227   -0.1914548892    0.0330809657
H        3.6672102363   -4.1694801840    0.6423585727
H        4.8672840600   -0.3509203832   -0.9926479070
H        1.8263323291   -1.0201457749    3.8169719788
H        5.5146982469   -5.2289035607   -0.6849386042
H        6.6736365971   -1.5508363057   -2.2612356104
H        6.8727101269   -3.8647220907   -2.0091429903
H       -0.3188094307   -0.0539278301    3.5382125315
23   
Generated by ForceBalance from scan.xyz: Frame 6 of 24
C        1.6980055043   -1.3102838030   -0.0775648649
C        0.6341581178   -0.7434066513    0.6128762858
C        4.1732291596   -3.6462603358   -0.2485775937
C        5.0512444165   -1.4393955243   -0.6883790591
C        1.9257409855   -0.8276827294    2.6760806546
C        5.2611879563   -4.1896658047   -0.9078185796
C        6.1253563762   -2.0175666520   -1.3405096894
C        2.8918899097   -1.6480608900    0.5842248967
C        4.0470376486   -2.2499568536   -0.1267591115
C        0.7445662474   -0.5001000944    1.9933747116
C        2.9679178065   -1.3920027497    1.9540097638
N        6.2009208409   -3.3668864717   -1.4316094468
O       -0.3304664750    0.0550979674    2.6065093204
F        4.1154522759   -1.7122336979    2.6024687154
H        1.6047298187   -1.4950870220   -1.1441856680
H       -0.2886900146   -0.4817104264    0.1060742599
H        3.4238604245   -4.3060374521    0.1748644282
H        4.9938551761   -0.3591132020   -0.6119915759
H        2.0475477941   -0.6546604139    3.7419612554
H        5.4177537349   -5.2552011335   -1.0337634941
H        6.9315150692   -1.4502176702   -1.7921356572
H        6.9985350188   -3.7798678603   -1.9117471114
H       -0.1605195563    0.1842039737    3.5543568327
23   
Generated by ForceBalance from scan.xyz: Frame 7 of 24
C        1.5873319818   -1.5589071070   -0.0179539014
C        0.5492480116   -0.9378901210    0.6610496547
C        4.0697331876   -3.6653587836   -0.4877338471
C        5.1058438463   -1.4823146154   -0.4631748007
C        1.9945963061   -0.6482016023    2.6020015791
C        5.1842573735   -4.1650530786   -1.1340719578
C        6.2038627846   -2.0177855514   -1.1065273636
C        2.8431443788   -1.7578671919    0.5898597692
C        3.9951237974   -2.2967525154   -0.1583540212
C        0.7457326488   -0.4889179229    1.9798892020
C        3.0149122326   -1.2508486373    1.8832728644
N        6.2149144345   -3.3354205225   -1.4275118334
O       -0.3110817637    0.0950404326    2.5926607319
F        4.2303276701   -1.3816988691    2.4683773432
H        1.4311486183   -1.8928850206   -1.0401007061
H       -0.4168147256   -0.7826389291    0.1925755115
H        3.2574027508   -4.3377463942   -0.2341518688
H        5.1057945323   -0.4293397102   -0.2048353572
H        2.1834985090   -0.3126876942    3.6181608996
H        5.3011259393   -5.2071237784   -1.4097632739
H        7.0801015307   -1.4404744104   -1.3794262074
H        7.0329449066   -3.7177872277   -1.8975624796
H       -0.0811622472    0.3722525452    3.4953065904
23   
Generated by ForceBalance from scan.xyz: Frame 8 of 24
C        1.5839518849   -1.6994750764    0.0614172775
C        0.5290846374   -1.0890765614    0.7185943143
C        4.0045823759   -3.6134874200   -0.6057898967
C        5.1959910585   -1.5295411861   -0.3147549770
C        2.0170700300   -0.5204515486    2.5656291007
C        5.0971357519   -4.1226855487   -1.2764890304
C        6.2681554987   -2.0749381332   -0.9880606515
C        2.8767803771   -1.7545071825    0.6290897663
C        4.0144494208   -2.2832977457   -0.1280755610
C        0.7382740736   -0.5056609933    1.9831273154
C        3.0537076907   -1.1125013698    1.8650280903
N        6.1962651311   -3.3478109744   -1.4548097941
O       -0.3338130486    0.0590112631    2.5814039041
F        4.2883540078   -1.1057581784    2.4204274775
H        1.4178534483   -2.1323661622   -0.9213249600
H       -0.4601440876   -1.0403514461    0.2760584856
H        3.1423065311   -4.2507671317   -0.4430468497
H        5.2695959650   -0.5130725881    0.0532483668
H        2.2143102579   -0.0817164649    3.5399554183
H        5.1457353411   -5.1360175506   -1.6588635939
H        7.1905000981   -1.5373694073   -1.1769270344
H        6.9983514949   -3.7374471375   -1.9447942574
H       -0.0952957552    0.4366841948    3.4448510028
23   
Generated by ForceBalance from scan.xyz: Frame 9 of 24
C        1.5974145341   -1.7956890702    0.1283231788
C        0.5208459231   -1.2172031456    0.7741439079
C        3.9564476634   -3.5372131913   -0.6989904073
C        5.2813050486   -1.5748988888   -0.2060967088
C        2.0169898332   -0.4149143240    2.5265648736
C        5.0268907913   -4.0655710412   -1.3858828283
C        6.3272283951   -2.1381583220   -0.9025472570
C        2.9136458367   -1.7122004762    0.6446520364
C        4.0437586298   -2.2565961940   -0.0989756733
C        0.7242760402   -0.5297350066    1.9875730954
C        3.0734205447   -0.9818484628    1.8368101025
N        6.1834183910   -3.3607062982   -1.4767751006
O       -0.3663789028    0.0005880109    2.5788786450
F        4.3113301376   -0.8611955458    2.3689923674
H        1.4312992009   -2.3018158926   -0.8183977104
H       -0.4817147233   -1.2701489343    0.3632141544
H        3.0526655666   -4.1292668119   -0.6094539817
H        5.4199054109   -0.5975905054    0.2385380582
H        2.2094542916    0.1010850786    3.4632094706
H        5.0121438825   -5.0438524065   -1.8528228609
H        7.2868649549   -1.6501336922   -1.0297990058
H        6.9688534650   -3.7639795484   -1.9816643315
H       -0.1324570037    0.4573801644    3.4048066605
23   
Generated by ForceBalance from scan.xyz: Frame 10 of 24
C        1.5949046899   -1.8812388879    0.1879224422
C        0.5055441933   -1.3311144005    0.8329010020
C        3.9140604587   -3.4647022684   -0.7958073930
C        5.3382759322   -1.6370955382   -0.1119597559
C        2.0016381597   -0.3175783533    2.4699672185
C        4.9735887236   -4.0080277045   -1.4846079732
C        6.3707137003   -2.2126184737   -0.8166730908
C        2.9257197773   -1.6728647918    0.6353421196
C        4.0554794876   -2.2454274159   -0.0818724027
C        0.7023970054   -0.5472401923    1.9885070558
C        3.0691825460   -0.8672179135    1.7842346900
N        6.1765831017   -3.3782474944   -1.4863369585
O       -0.3993051424   -0.0455814282    2.5804926666
F        4.3045864223   -0.6446243552    2.2867608017
H        1.4213612621   -2.4541577381   -0.7174068941
H       -0.5044633122   -1.4788717528    0.4656942071
H        2.9789809449   -4.0114948404   -0.7859859155
H        5.5264647991   -0.7028060487    0.3988609830
H        2.1924220948    0.2691584620    3.3643298642
H        4.9108735231   -4.9432515301   -2.0291914324
H        7.3602952223   -1.7742723192   -0.8784463880
H        6.9525960733   -3.7922921107   -1.9964995388
H       -0.1699674349    0.4836705562    3.3635753742
23   
Generated by ForceBalance from scan.xyz: Frame 11 of 24
C        1.5972695978   -1.9695225028    0.2706855028
C        0.5035367445   -1.4412287733    0.9229907139
C        3.8912811087   -3.3823948504   -0.9054689808
C        5.3874607964   -1.7159025244   -0.0131095082
C        1.9963978575   -0.2203901394    2.4080129904
C        4.9458395866   -3.9343320759   -1.5924471020
C        6.4142892883   -2.2965460411   -0.7208546039
C        2.9362506906   -1.6481231794    0.6277654692
C        4.0664518087   -2.2423887334   -0.0720942543
C        0.6951609756   -0.5583951165    2.0060284608
C        3.0677257270   -0.7612353494    1.7214279049
N        6.1855509849   -3.3893228515   -1.4930886908
O       -0.4095759388   -0.0781618771    2.6068810355
F        4.2971555072   -0.4277091200    2.1738658418
H        1.4083560864   -2.6191144065   -0.5760583145
H       -0.5086067523   -1.6835940989    0.6171017906
H        2.9314578393   -3.8733463794   -0.9957264048
H        5.6168239362   -0.8390377301    0.5734213937
H        2.1899446204    0.4426855541    3.2466639768
H        4.8466183382   -4.8110106793   -2.2222167814
H        7.4288399478   -1.9148779448   -0.7040192928
H        6.9570969988   -3.8082880678   -2.0056389918
H       -0.1827760795    0.5231806044    3.3370799051
23   
Generated by ForceBalance from scan.xyz: Frame 12 of 24
C        1.5934331598   -2.1060348121    0.3914921562
C        0.5010062095   -1.5871768642    1.0516371563
C        3.8507023875   -3.2742945358   -1.0639191164
C        5.4095788340   -1.8613764250    0.1047512857
C        1.9760337136   -0.1109873667    2.2963565164
C        4.8991255450   -3.8308897308   -1.7549398958
C        6.4307293519   -2.4448112340   -0.6087724388
C        2.9288271311   -1.6722334837    0.6325602149
C        4.0533666267   -2.2528805459   -0.0911693706
C        0.6828633625   -0.5768402634    2.0182608581
C        3.0470939413   -0.6564318816    1.6128071394
N        6.1700222435   -3.4134032838   -1.5222766389
O       -0.4192267514   -0.1080121908    2.6312025555
F        4.2609906885   -0.1564258007    1.9355782431
H        1.3989047524   -2.8789937922   -0.3408302266
H       -0.5036101731   -1.9398446162    0.8440222440
H        2.8652747461   -3.6519903067   -1.2966709839
H        5.6786970521   -1.0974459560    0.8163179918
H        2.1661738573    0.6656211777    3.0319739151
H        4.7680443698   -4.6084494603   -2.4986892580
H        7.4697475048   -2.1644072104   -0.4779580005
H        6.9374216423   -3.8330954834   -2.0402378277
H       -0.1980938539    0.5832894917    3.2789752016
23   
Generated by ForceBalance from scan.xyz: Frame 13 of 24
C        1.6175348914   -2.2331317185    0.5227799433
C        0.5269733112   -1.7206404525    1.1927898558
C        3.8353827292   -3.1272183983   -1.1871685302
C        5.4090141809   -1.9904753244    0.2435825809
C        1.9532031869   -0.0114837600    2.1765750323
C        4.8882696217   -3.6802737696   -1.8757695102
C        6.4335018901   -2.5687796195   -0.4694123317
C        2.9255728090   -1.6883504371    0.6487573016
C        4.0492739030   -2.2448332137   -0.0914700754
C        0.6861284428   -0.5961284317    2.0290032200
C        3.0246628480   -0.5615061851    1.4974830719
N        6.1651658062   -3.3966291190   -1.5113154200
O       -0.4144359638   -0.1371356480    2.6536527098
F        4.2133858356    0.0636020482    1.6507391130
H        1.4602066163   -3.1164543878   -0.0851619046
H       -0.4565284805   -2.1684142128    1.0980721841
H        2.8387621529   -3.3615412760   -1.5368827073
H        5.6736792105   -1.3527498339    1.0734928967
H        2.1181239877    0.8647227646    2.7974915752
H        4.7573313931   -4.3430817472   -2.7234557335
H        7.4788800785   -2.4029306898   -0.2350260851
H        6.9351617655   -3.8112869773   -2.0296603520
H       -0.2104476497    0.6344317605    3.2098158265
23   
Generated by ForceBalance from scan.xyz: Frame 14 of 24
C        1.6449798839   -2.3063754087    0.6134625239
C        0.5638990388   -1.7976904493    1.3047569461
C        3.8353976414   -3.0138996894   -1.2721244897
C        5.3912342571   -2.0899129004    0.3286042482
C        1.9453367432    0.0562622309    2.0783382859
C        4.8943426369   -3.5686780504   -1.9526780528
C        6.4212418433   -2.6650815889   -0.3799173460
C        2.9172756311   -1.6773199277    0.6267682192
C        4.0447194247   -2.2517340575   -0.0924866985
C        0.7056348754   -0.6027102082    2.0399775837
C        3.0108407923   -0.4955858019    1.3912025494
N        6.1616647289   -3.3890261684   -1.4994698617
O       -0.3871237683   -0.1498030553    2.6854686567
F        4.1839434486    0.1755990423    1.4315075273
H        1.5203526043   -3.2439895691    0.0811491712
H       -0.3964075755   -2.3022562208    1.3052372959
H        2.8412122054   -3.1468687671   -1.6812547873
H        5.6347339212   -1.5309482730    1.2216507354
H        2.0903656959    0.9856375236    2.6221806592
H        4.7783489277   -4.1441438613   -2.8640129712
H        7.4610107925   -2.5793956827   -0.0853471588
H        6.9356946732   -3.8015266727   -2.0138792726
H       -0.1970394105    0.6728751625    3.1681593253
23   
Generated by ForceBalance from scan.xyz: Frame 15 of 24
C        1.6574180252   -2.3711399000    0.6947461855
C        0.5926614704   -1.8617555962    1.4141647936
C        3.8435690921   -2.9187318574   -1.3564346891
C        5.3468884466   -2.1933861495    0.3935061774
C        1.9279245656    0.1007243069    1.9796032876
C        4.9162882157   -3.4673407766   -2.0236217175
C        6.3920961500   -2.7558268347   -0.3046951847
C        2.8878819919   -1.6782562429    0.5856151717
C        4.0237258883   -2.2758676508   -0.1067132994
C        0.7194639321   -0.6125931390    2.0544082881
C        2.9804258468   -0.4548999012    1.2747972410
N        6.1610007493   -3.3792121841   -1.4891489522
O       -0.3581338224   -0.1603471716    2.7286859920
F        4.1369947805    0.2442086607    1.2135039550
H        1.5555768215   -3.3458489607    0.2261359697
H       -0.3405782749   -2.4068020376    1.5079284808
H        2.8628769817   -2.9708590728   -1.8156821339
H        5.5562331909   -1.7059438472    1.3372226324
H        2.0583807140    1.0693526106    2.4543192747
H        4.8313682032   -3.9599462219   -2.9855964935
H        7.4183917236   -2.7363868402    0.0440447934
H        6.9452890068   -3.7834748313   -1.9950301360
H       -0.1798901016    0.7025838261    3.1399223188
23   
Generated by ForceBalance from scan.xyz: Frame 16 of 24
C        1.6693669001   -2.4339354931    0.7956162172
C        0.6282280228   -1.9094336925    1.5427772205
C        3.8715502732   -2.8201434094   -1.4356839139
C        5.2874126031   -2.3098568589    0.4570201864
C        1.9098126838    0.1386895975    1.8763447521
C        4.9659122333   -3.3500686604   -2.0871556977
C        6.3571175133   -2.8461399334   -0.2274788040
C        2.8508044540   -1.6978958164    0.5523330447
C        3.9988423983   -2.3072498842   -0.1248249801
C        0.7388579728   -0.6116571943    2.0781631918
C        2.9415394867   -0.4310148835    1.1503941366
N        6.1755949377   -3.3545696230   -1.4731737177
O       -0.3169607561   -0.1483916185    2.7830610348
F        4.0756927843    0.2875817487    0.9765032882
H        1.5828037931   -3.4422320371    0.3999269254
H       -0.2734469865   -2.4810104122    1.7353393808
H        2.9152249485   -2.7951306785   -1.9465078860
H        5.4486919941   -1.9064942518    1.4496616639
H        2.0287016262    1.1433048211    2.2729762700
H        4.9267836318   -3.7512842376   -3.0935880093
H        7.3620693464   -2.8921313679    0.1766616350
H        6.9763805791   -3.7416802730   -1.9672855182
H       -0.1504941023    0.7502352571    3.1144491298
23   
Generated by ForceBalance from scan.xyz: Frame 17 of 24
C        1.7014942095   -2.5104802370    0.9319365358
C        0.6751472157   -1.9623533928    1.6872333550
C        3.9082298489   -2.6976595454   -1.5003352301
C        5.2239560839   -2.4690626380    0.5134784616
C        1.8624029596    0.1654278953    1.7512401972
C        5.0210215781   -3.2000976443   -2.1475427046
C        6.3152139393   -2.9718158143   -0.1667298559
C        2.8205572206   -1.7429299486    0.5515444916
C        3.9792638283   -2.3421949024   -0.1380664439
C        0.7467069589   -0.6166089786    2.0914096140
C        2.8793507326   -0.4240841782    1.0170158622
N        6.1877030737   -3.3261626238   -1.4696225061
O       -0.2936940764   -0.1372471033    2.8132836721
F        3.9713404557    0.3175829148    0.7100478094
H        1.6444513366   -3.5535810381    0.6329424025
H       -0.1852235919   -2.5537474736    1.9819815520
H        2.9829222764   -2.5766682991   -2.0530029369
H        5.3346253147   -2.1829995374    1.5533907860
H        1.9525930352    1.2071112640    2.0471992834
H        5.0288112276   -3.4870741309   -3.1930893723
H        7.2926365456   -3.1059363070    0.2829434964
H        7.0020144898   -3.6910163008   -1.9596271258
H       -0.1554273866    0.7959650454    3.0466831730
23   
Generated by ForceBalance from scan.xyz: Frame 18 of 24
C        2.8303388722   -0.1525066047    0.6949236556
C        1.7808219429    0.4229790185    1.4000256551
C        5.3135418288   -2.4795255416    0.5161295325
C        3.9384606514   -2.5458347958   -1.4687208203
C        0.9761870626   -1.7919186470    2.0152658327
C        6.3334234385   -3.0882106555   -0.1929499783
C        4.9804895515   -3.1535307351   -2.1456530929
C        2.9793124849   -1.5494281499    0.6322324110
C        4.0880349170   -2.1941529957   -0.1142462715
C        0.8495012369   -0.3954611319    2.0633193431
C        2.0367719247   -2.3315655462    1.3011157585
N        6.1411630678   -3.4071415694   -1.4951627842
O       -0.1502209623    0.2306219407    2.7329507352
F        2.1699006392   -3.6802880944    1.2466590160
H        3.5455280648    0.4869829237    0.1849361906
H        1.6623694709    1.5001831129    1.4508145924
H        5.4672040555   -2.2291146724    1.5600802765
H        3.0083687102   -2.3476821980   -1.9900917081
H        0.2763528456   -2.4563219874    2.5149561113
H        7.2985746365   -3.3361886070    0.2345212079
H        4.9285822198   -3.4505294848   -3.1872017278
H        6.8989615607   -3.8577011502   -2.0050803979
H       -0.7403384407   -0.4142955573    3.1569877955
23   
Generated by ForceBalance from scan.xyz: Frame 19 of 24
C        2.6401917540   -0.2582756777    0.4446616227
C        1.6633143905    0.3676162403    1.2050436689
C        5.1208178038   -2.7330634976    0.5574896417
C        4.0272441163   -2.3723895991   -1.5665795914
C        1.0786538647   -1.7735018057    2.2114658786
C        6.2068580481   -3.2579210691   -0.1138252107
C        5.1333414284   -2.9011110201   -2.2041364596
C        2.8539757059   -1.6490815137    0.5290568821
C        3.9870736341   -2.2957024060   -0.1592643009
C        0.8687569719   -0.3906514686    2.0846808586
C        2.0803914503   -2.3592002751    1.4539092354
N        6.1863996948   -3.3320006844   -1.4683878780
O       -0.0773669686    0.2770722458    2.7861610172
F        2.3111797432   -3.6867367776    1.5945729065
H        3.2574244524    0.3363482244   -0.2232752706
H        1.5011562906    1.4384638076    1.1424554815
H        5.1495255502   -2.6656404421    1.6392798062
H        3.1846898781   -2.0342241438   -2.1598792810
H        0.4873533635   -2.3899373201    2.8830893840
H        7.1055500231   -3.6083415864    0.3812529728
H        5.2143651318   -3.0019041941   -3.2806521159
H        6.9947282941   -3.7205973057   -1.9499025829
H       -0.5734097942   -0.3262445157    3.3644878658
23   
Generated by ForceBalance from scan.xyz: Frame 20 of 24
C        2.5392241633   -0.3144623739    0.3280321338
C        1.5693084990    0.3301526095    1.0767914951
C        5.0464450615   -2.8916010003    0.5589205257
C        4.0899662279   -2.2282479810   -1.5603215442
C        1.1603640483   -1.7310630115    2.3169760834
C        6.1390845029   -3.3924484725   -0.1152893694
C        5.2005692175   -2.7397732079   -2.1984632059
C        2.8447944744   -1.6785005057    0.5352112741
C        3.9719681761   -2.3103935819   -0.1539502631
C        0.8640718874   -0.3800258696    2.0678959092
C        2.1569272142   -2.3332036401    1.5691131056
N        6.1922768140   -3.3102481229   -1.4699535222
O       -0.0817425586    0.3013314129    2.7510487262
F        2.4603381445   -3.6271754403    1.8250330620
H        3.0910968769    0.2464574778   -0.4211654390
H        1.3442170876    1.3804214464    0.9247354422
H        5.0247892178   -2.9519881924    1.6406502582
H        3.2981075431   -1.7863277174   -2.1551180585
H        0.6371544609   -2.3087373690    3.0740667174
H        6.9915394417   -3.8429762446    0.3804170266
H        5.3326354822   -2.7224660931   -3.2744166116
H        7.0052747335   -3.6848274224   -1.9535557511
H       -0.5131939231   -0.2651613500    3.4129085086
23   
Generated by ForceBalance from scan.xyz: Frame 21 of 24
C        2.4697576062   -0.3476156675    0.2695528417
C        1.4729630153    0.2888402956    0.9851435051
C        5.0169668070   -3.0070265374    0.5474364958
C        4.1580595548   -2.1040537639   -1.5247565211
C        1.2260408037   -1.6921042494    2.3882435409
C        6.0895068940   -3.5183054325   -0.1481026614
C        5.2456786198   -2.6331428041   -2.1833617802
C        2.8859627410   -1.6658346913    0.5774737148
C        4.0005029081   -2.2865240691   -0.1284710943
C        0.8355419339   -0.3863692148    2.0456426034
C        2.2461544046   -2.2853109467    1.6670711080
N        6.1837237208   -3.3268668578   -1.4898636057
O       -0.1392345175    0.2820405511    2.6961277103
F        2.6124065853   -3.5420067941    2.0081516512
H        2.9695827191    0.1942732118   -0.5280036717
H        1.1736306797    1.3062252165    0.7567853412
H        4.9715084494   -3.1615275415    1.6180477115
H        3.4089604777   -1.5740818872   -2.1020470242
H        0.7524933771   -2.2451650976    3.1947597142
H        6.8962085068   -4.0676332598    0.3238607109
H        5.3993517476   -2.5377622113   -3.2522633150
H        6.9809301202   -3.7140927520   -1.9887719883
H       -0.5190985594   -0.2563308358    3.4112695892
23   
Generated by ForceBalance from scan.xyz: Frame 22 of 24
C        2.4155486085   -0.3725792485    0.2240669406
C        1.3837077626    0.2465075644    0.9002275673
C        4.9901013426   -3.1010855055    0.5323756845
C        4.2435390502   -1.9851370715   -1.4757547891
C        1.2871786440   -1.6339309645    2.4489682474
C        6.0367127674   -3.6346691793   -0.1841746572
C        5.3015841219   -2.5424810995   -2.1554589226
C        2.9394887088   -1.6295476644    0.6248151486
C        4.0444435859   -2.2464213797   -0.0941985543
C        0.8049318068   -0.3867645100    2.0194680008
C        2.3361603637   -2.2128352881    1.7587818161
N        6.1764598352   -3.3522522617   -1.5053877327
O       -0.2048821153    0.2610983607    2.6327977172
F        2.7600772161   -3.4238917359    2.1853022141
H        2.8658367639    0.1492168807   -0.6141978895
H        1.0103403420    1.2188348153    0.5969603297
H        4.9194398404   -3.3368358222    1.5852516283
H        3.5468178967   -1.3718157531   -2.0340871187
H        0.8581351406   -2.1593813783    3.2976974891
H        6.7869421771   -4.2802684743    0.2580844014
H        5.4783992448   -2.3815175637   -3.2127940346
H        6.9526322425   -3.7597199752   -2.0205539408
H       -0.5388900227   -0.2443645510    3.3936437405
23   
Generated by ForceBalance from scan.xyz: Frame 23 of 24
C        2.3461241527   -0.4271219135    0.1779107415
C        1.2861069759    0.1729894959    0.8235703203
C        4.9409211775   -3.2037414937    0.4966008163
C        4.3405161912   -1.8747444203   -1.4227546698
C        1.3527550622   -1.5739487357    2.5171190959
C        5.9674979822   -3.7511822917   -0.2375999703
C        5.3746176442   -2.4493880488   -2.1219873238
C        2.9760308255   -1.6085981661    0.6589759582
C        4.0775315791   -2.2233892524   -0.0682747288
C        0.7750675546   -0.4018709153    2.0057452929
C        2.4221008728   -2.1392276405    1.8470588428
N        6.1717169223   -3.3725741666   -1.5250295553
O       -0.2636148302    0.2233681676    2.5907047508
F        2.9167126397   -3.2834347984    2.3700375555
H        2.7307670705    0.0620251801   -0.7094662280
H        0.8372789151    1.0860328464    0.4471482308
H        4.8291041564   -3.5285418377    1.5199748354
H        3.7160884690   -1.1699654093   -1.9554335303
H        0.9817868719   -2.0576244301    3.4165098755
H        6.6496261961   -4.4901197415    0.1672889949
H        5.5922231748   -2.2116746601   -3.1569584474
H        6.9319185931   -3.7919579460   -2.0539155555
H       -0.5459360091   -0.2387363991    3.3987917384
23   
Generated by ForceBalance from scan.xyz: Frame 24 of 24
C        2.2217599111   -0.5439547069    0.0941257819
C        1.1646725809    0.0598940097    0.7393223944
C        4.8258452622   -3.3396808048    0.4232879732
C        4.4565530760   -1.7624552041   -1.3563349287
C        1.4407896887   -1.4802345053    2.5995935486
C        5.8657961054   -3.8728642885   -0.3023068925
C        5.5018487392   -2.3237169570   -2.0483176672
C        2.9490297384   -1.6377735145    0.6456588486
C        4.0612802042   -2.2451879686   -0.0751601470
C        0.7610703573   -0.4059933999    2.0075150354
C        2.4966296005   -2.0594014330    1.9201857330
N        6.1913403030   -3.3663277931   -1.5180615325
O       -0.2768471339    0.2216298688    2.5895648295
F        3.1026609448   -3.0886211752    2.5534666817
H        2.4911990909   -0.1484721593   -0.8767493385
H        0.6311855719    0.8916128515    0.2916804679
H        4.6146609823   -3.7843218478    1.3824869407
H        3.9504301536   -0.9360675190   -1.8346520287
H        1.1666470567   -1.8735710073    3.5745804060
H        6.4617370603   -4.7049855429    0.0550818911
H        5.8191937149   -1.9726110391   -3.0234923666
H        6.9629591952   -3.7732229900   -2.0399515059
H       -0.4839865119   -0.1654932698    3.4576905144
