22   
Generated by ForceBalance from scan.xyz: Frame 1 of 24
C        2.1969001811   -0.6218766235    0.0796463721
C        1.1646180916    0.0377966260    0.7342972079
C        4.5232558633   -3.6248057487   -0.0082486841
C        4.6725490196   -1.5322778091   -1.1238880576
C        1.3505351541   -1.5525831878    2.5339609582
C        5.6345671352   -4.0320656914   -0.7505605475
C        5.7763887144   -2.0319806768   -1.8121347589
C        2.8373342482   -1.7781738300    0.5787818985
C        3.9822484712   -2.3397180630   -0.1949899186
C        0.7278118315   -0.4362475709    1.9758080461
C        2.3876848200   -2.1945935621    1.8562496894
N        6.2718867257   -3.2669434999   -1.6455206234
O       -0.2842428058    0.1446695622    2.6896614055
Cl       3.1267785464   -3.5038167832    2.7766695874
H        2.4797540296   -0.2521322396   -0.8985908069
H        0.7005636823    0.9092745096    0.2768568708
H        4.0698060447   -4.3402178412    0.6609538313
H        4.3919496133   -0.5004532989   -1.3000383912
H        1.0347870547   -1.9029834905    3.5102996618
H        6.0324779226   -5.0357704766   -0.6078652495
H        6.2979629279   -1.3972395646   -2.5271855664
H       -0.6233578957    0.9112704223    2.2004504296
22   
Generated by ForceBalance from scan.xyz: Frame 2 of 24
C        2.1329926178   -0.6782055042    0.0239208324
C        1.0832383368   -0.0411066334    0.6768149805
C        4.4083201165   -3.6531693660   -0.1006569533
C        4.7725725427   -1.4780987310   -1.0058211969
C        1.4395239503   -1.4846446240    2.5802151662
C        5.5092294778   -4.0830908004   -0.8444417491
C        5.8577591610   -2.0052730183   -1.7059580133
C        2.8567404017   -1.7483693114    0.5880325845
C        3.9967521756   -2.3125037123   -0.1797636865
C        0.7262194638   -0.4529315639    1.9658648632
C        2.4881625251   -2.1069059486    1.9041497225
N        6.2389183107   -3.2891145557   -1.6405092484
O       -0.2958402966    0.1141835323    2.6781931133
Cl       3.3760167065   -3.3032289287    2.8423349867
H        2.3731819305   -0.3684541127   -0.9880638107
H        0.5435015303    0.7642666816    0.1827081967
H        3.8634985330   -4.3755721460    0.4932858822
H        4.5627725527   -0.4159416417   -1.0829093210
H        1.1834433358   -1.7791544956    3.5919504611
H        5.8194283149   -5.1257678524   -0.7932548918
H        6.4583210323   -1.3575752349   -2.3432063819
H       -0.7016045893    0.8203542312    2.1503591433
22   
Generated by ForceBalance from scan.xyz: Frame 3 of 24
C        2.1002948345   -0.7229581354   -0.0073578146
C        1.0227089654   -0.1176864036    0.6342457972
C        4.3259759313   -3.6446853569   -0.1676332880
C        4.8884441814   -1.4401614339   -0.8979687964
C        1.5202073081   -1.4103205185    2.6195319801
C        5.4000922461   -4.1085459181   -0.9293151305
C        5.9382888670   -2.0045764044   -1.6253106129
C        2.9081288913   -1.6914688295    0.6155469786
C        4.0443041478   -2.2704213558   -0.1434616522
C        0.7275766917   -0.4684094513    1.9569167711
C        2.5910163990   -2.0028481071    1.9532056317
N        6.2061721342   -3.3176306448   -1.6531034070
O       -0.3145553185    0.0756041742    2.6595798468
Cl       3.5793119310   -3.1107894210    2.8961505466
H        2.3096251270   -0.4640277441   -1.0410775087
H        0.4145520970    0.6144273142    0.1066498616
H        3.7098801379   -4.3517525346    0.3764796111
H        4.7481744931   -0.3629411203   -0.9015504674
H        1.3022259930   -1.6591965891    3.6523286731
H        5.6216014943   -5.1743408611   -0.9605605928
H        6.6008889733   -1.3668734357   -2.2089178119
H       -0.7802591302    0.7156295631    2.0980277873
22   
Generated by ForceBalance from scan.xyz: Frame 4 of 24
C        2.0490503393   -0.7872307197   -0.0390022976
C        0.9529606110   -0.2118253620    0.6020413761
C        4.2290602965   -3.6265296856   -0.2624592452
C        4.9974008313   -1.4234491829   -0.7900163233
C        1.5939735553   -1.3335013751    2.6520444774
C        5.2851392429   -4.1177031462   -1.0322383583
C        6.0198978825   -2.0169096047   -1.5354593482
C        2.9390212445   -1.6447595558    0.6272945704
C        4.0719710983   -2.2401910825   -0.1261741169
C        0.7237974578   -0.4886917156    1.9551588504
C        2.6793744427   -1.8990491918    1.9864802867
N        6.1768773399   -3.3411568329   -1.6660398955
O       -0.3303705828    0.0356836222    2.6561795406
Cl       3.7586708342   -2.9175174809    2.9280078751
H        2.2173320967   -0.5838972515   -1.0928361946
H        0.2793825638    0.4407997154    0.0501337633
H        3.5391774804   -4.3137791370    0.2172654233
H        4.9336487350   -0.3413056022   -0.7150227294
H        1.4188946781   -1.5321069061    3.7037648574
H        5.4183663049   -5.1920922306   -1.1499360916
H        6.7504298108   -1.3947837865   -2.0507564218
H       -0.8535343435    0.6048522162    2.0695626156
22   
Generated by ForceBalance from scan.xyz: Frame 5 of 24
C        1.9649125245   -0.8828682280   -0.0763898327
C        0.8683950889   -0.3154075846    0.5734146150
C        4.1277951231   -3.6035872221   -0.3835898978
C        5.1031479646   -1.4357634121   -0.6542623881
C        1.6803234834   -1.2093468675    2.6763197208
C        5.1919351920   -4.1153316818   -1.1295090233
C        6.1243954860   -2.0466687094   -1.3884489292
C        2.9389024125   -1.6174934198    0.6148495604
C        4.0747947286   -2.2272400946   -0.1291972099
C        0.7273376254   -0.4807758786    1.9565614129
C        2.7634407762   -1.7675973863    2.0005746198
N        6.1825165041   -3.3630530394   -1.6319573089
O       -0.3204232670    0.0454441703    2.6668330272
Cl       3.9443214243   -2.6636194146    2.9421409863
H        2.0715659951   -0.7619321326   -1.1508211295
H        0.1287037946    0.2463295387    0.0062933063
H        3.3554078288   -4.2662156129   -0.0039217942
H        5.1149710541   -0.3623577820   -0.4863809002
H        1.5672449838   -1.3282855420    3.7484146166
H        5.2489597553   -5.1828270081   -1.3375535797
H        6.9351137797   -1.4468034467   -1.7997936951
H       -0.9076798029    0.5258022478    2.0617816288
22   
Generated by ForceBalance from scan.xyz: Frame 6 of 24
C        1.8573072021   -1.0193705147   -0.0924747973
C        0.7773483710   -0.4408618832    0.5760717926
C        4.0269237155   -3.5748405335   -0.5465256711
C        5.1769238058   -1.4768287062   -0.5047995672
C        1.7856752315   -1.0572351558    2.6942624883
C        5.1091144776   -4.0920807610   -1.2640785545
C        6.2070187909   -2.0891634428   -1.2242628113
C        2.9167501901   -1.6241973198    0.5971411124
C        4.0522850048   -2.2319740591   -0.1525697250
C        0.7438101858   -0.4612172533    1.9756501450
C        2.8509440932   -1.6269865747    1.9997029488
N        6.1884797891   -3.3741466796   -1.6061638302
O       -0.2812133363    0.0853450315    2.7039775960
Cl       4.1426859786   -2.3666547228    2.9303876265
H        1.8848132986   -1.0046379148   -1.1784986424
H       -0.0300841728    0.0211441878    0.0113068191
H        3.1816040512   -4.2089660752   -0.2943788103
H        5.2523989931   -0.4313627962   -0.2191910137
H        1.7525246314   -1.0689069218    3.7783029675
H        5.1074665199   -5.1346596030   -1.5791340299
H        7.0901666837   -1.5179463412   -1.5071023509
H       -0.9372905317    0.4644463813    2.0977416084
22   
Generated by ForceBalance from scan.xyz: Frame 7 of 24
C        1.7854905276   -1.1646659980   -0.0883983934
C        0.7080539181   -0.5750056544    0.5736227509
C        3.9471484783   -3.5285424515   -0.7031073091
C        5.2445064875   -1.5510793726   -0.3389486055
C        1.8463860789   -0.9229502689    2.6865940574
C        5.0353074679   -4.0461670308   -1.4124907527
C        6.2722816400   -2.1580102754   -1.0643314193
C        2.9075979892   -1.6452602683    0.6012187440
C        4.0426697000   -2.2453005828   -0.1522672103
C        0.7412033646   -0.4545283343    1.9680929418
C        2.9095684168   -1.5047210967    1.9990456687
N        6.1853093362   -3.3845540195   -1.6004659645
O       -0.2764655603    0.1117263942    2.6912926412
Cl       4.2719848275   -2.0917559550    2.9386189535
H        1.7645235241   -1.2531363224   -1.1710919636
H       -0.1467203612   -0.2095864406    0.0078033075
H        3.0434974163   -4.1184338920   -0.5768939590
H        5.3782895029   -0.5556765755    0.0747995552
H        1.8618150969   -0.8309462063    3.7671521762
H        4.9792968607   -5.0432302689   -1.8472647932
H        7.2124399829   -1.6318257237   -1.2234138579
H       -0.9806080507    0.3934470736    2.0858880436
22   
Generated by ForceBalance from scan.xyz: Frame 8 of 24
C        1.7548166346   -1.2880819174   -0.0631094532
C        0.6693936118   -0.7003624416    0.5852959033
C        3.8930594291   -3.4482903517   -0.8316523454
C        5.3166759642   -1.6256423593   -0.2199742486
C        1.9021651712   -0.7873662525    2.6706063714
C        4.9658645016   -3.9725203987   -1.5582790162
C        6.3231486838   -2.2317113386   -0.9742018392
C        2.9327457344   -1.6371201449    0.6160268998
C        4.0595913517   -2.2403527779   -0.1414231195
C        0.7460129062   -0.4478399392    1.9602037858
C        2.9734890402   -1.3693645629    1.9963393199
N        6.1681242973   -3.3863837496   -1.6397641355
O       -0.2751583872    0.1265577702    2.6709411447
Cl       4.3831320216   -1.8079954993    2.9491824060
H        1.7007903988   -1.4720045541   -1.1324757166
H       -0.2243941889   -0.4359193594    0.0236110840
H        2.9463053129   -3.9801941373   -0.7943874523
H        5.5088980013   -0.6877724158    0.2919477870
H        1.9488100494   -0.6009221721    3.7379996618
H        4.8528049888   -4.9124668751   -2.0968404676
H        7.3035982460   -1.7637345159   -1.0497818724
H       -1.0173439255    0.3100840692    2.0732481482
22   
Generated by ForceBalance from scan.xyz: Frame 9 of 24
C        1.7371687986   -1.3893641197   -0.0241801027
C        0.6383278050   -0.8122633001    0.6080168746
C        3.8489992896   -3.3538239703   -0.9301747732
C        5.3780519130   -1.7070668984   -0.1164878706
C        1.9301197347   -0.6632567249    2.6505261522
C        4.9024950002   -3.8884248546   -1.6749397213
C        6.3608840682   -2.3155728489   -0.8992167228
C        2.9597335974   -1.6096945203    0.6345343468
C        4.0777254537   -2.2339622353   -0.1157054507
C        0.7376644987   -0.4425323468    1.9545381682
C        3.0148601986   -1.2394822593    1.9928938643
N        6.1470605020   -3.3909683010   -1.6720860920
O       -0.2931339055    0.1326345743    2.6492986520
Cl       4.4474415953   -1.5503494841    2.9642567907
H        1.6620093977   -1.6537046156   -1.0748678203
H       -0.2838322703   -0.6452717873    0.0548836402
H        2.8695009548   -3.8224957506   -0.9658015089
H        5.6246504905   -0.8276165293    0.4682928419
H        1.9934156911   -0.3961541685    3.6997210826
H        4.7367829422   -4.7631936318   -2.3023184626
H        7.3724442743   -1.9123203689   -0.9094664156
H       -1.0618154156    0.2249112901    2.0641048428
22   
Generated by ForceBalance from scan.xyz: Frame 10 of 24
C        1.7197931713   -1.4865842324    0.0200727949
C        0.6104813683   -0.9206693149    0.6408108623
C        3.8275747491   -3.2654593860   -1.0211130522
C        5.4241285503   -1.8016431581   -0.0230878390
C        1.9479352669   -0.5567696488    2.6209695953
C        4.8702065882   -3.8085315633   -1.7727033411
C        6.3940712291   -2.4092146191   -0.8226207492
C        2.9803928738   -1.5853047682    0.6409502581
C        4.0919411958   -2.2430741552   -0.0925493372
C        0.7269252113   -0.4433509624    1.9512949270
C        3.0429008063   -1.1285296966    1.9757766871
N        6.1448319842   -3.4020659840   -1.6885222661
O       -0.3108613191    0.1322539055    2.6336915607
Cl       4.4864719975   -1.3253008091    2.9635356653
H        1.6215165673   -1.8205312050   -1.0076983253
H       -0.3339444961   -0.8456307887    0.1054634415
H        2.8281750304   -3.6752579972   -1.1312256788
H        5.7117873313   -0.9810161467    0.6222240334
H        2.0257357320   -0.2174381625    3.6480029739
H        4.6682176370   -4.6129097027   -2.4787048092
H        7.4273351060   -2.0694533088   -0.7685643661
H       -1.0998434030    0.1426128893    2.0686012439
22   
Generated by ForceBalance from scan.xyz: Frame 11 of 24
C        1.6786693185   -1.5697143407    0.0775099416
C        0.5610022816   -1.0074652122    0.6828499796
C        3.8090004723   -3.1557114947   -1.1064875536
C        5.4367345677   -1.8977484377    0.0852035402
C        1.9355133501   -0.4127056821    2.5727971630
C        4.8511458126   -3.7084002892   -1.8493067390
C        6.4068327717   -2.5051495778   -0.7151185634
C        2.9706412742   -1.5498425431    0.6458940995
C        4.0804819208   -2.2404369382   -0.0695869925
C        0.6911796807   -0.4094176037    1.9408168308
C        3.0387074066   -0.9903573008    1.9452137942
N        6.1450897675   -3.4053475006   -1.6719425580
O       -0.3510980173    0.1765807292    2.6055848853
Cl       4.4883189152   -1.0467165246    2.9461040563
H        1.5516690610   -1.9879309196   -0.9138735869
H       -0.4010971897   -1.0299871177    0.1749296599
H        2.8006099623   -3.4976536915   -1.3114672015
H        5.7544869621   -1.1478246542    0.7949925556
H        2.0281640564    0.0125963494    3.5659415174
H        4.6302906642   -4.4329464424   -2.6319102662
H        7.4542428304   -2.2381913438   -0.5818227083
H       -1.1568373217    0.1008311160    2.0698019095
22   
Generated by ForceBalance from scan.xyz: Frame 12 of 24
C        1.6560016936   -1.7168507037    0.1814502053
C        0.5281686956   -1.1869010471    0.7928406838
C        3.8260469198   -2.9302269260   -1.2887600048
C        5.4589231181   -2.1242418559    0.2256548155
C        1.9505311288   -0.2389605373    2.4815330433
C        4.8573704846   -3.5240966980   -2.0119484592
C        6.4201265234   -2.7563802427   -0.5680325621
C        2.9784118204   -1.5547206184    0.6580388333
C        4.0937566222   -2.1896655113   -0.1148160787
C        0.6724164190   -0.4351074008    1.9625941895
C        3.0685625093   -0.7830657527    1.8464355728
N        6.1541956760   -3.4541851824   -1.6777656112
O       -0.3780204105    0.1255888101    2.6348038960
Cl       4.5722296283   -0.3978596690    2.6875155874
H        1.4863777581   -2.2892775675   -0.7194162426
H       -0.4545727481   -1.3599468528    0.3588420041
H        2.8240627483   -3.0672990728   -1.6731894155
H        5.8061718278   -1.5937545925    1.0957065248
H        2.0692841521    0.3437995129    3.3880613888
H        4.6229527996   -4.0889646757   -2.9131604386
H        7.4690488059   -2.6901561224   -0.2822912751
H       -1.2047787523   -0.0848218554    2.1719080192
22   
Generated by ForceBalance from scan.xyz: Frame 13 of 24
C        1.6401359934   -1.8731155765    0.2802405714
C        0.5169497092   -1.3630945193    0.9205034656
C        3.8596772400   -2.6791022817   -1.4169909639
C        5.3837706441   -2.3366601343    0.3740786610
C        1.9686893719   -0.0963571679    2.3695653815
C        4.8928421291   -3.3056739804   -2.1120372404
C        6.3491104461   -2.9830703189   -0.4010730963
C        2.9649462448   -1.5700410863    0.6623471332
C        4.0889789106   -2.1318242215   -0.1383148131
C        0.6804206709   -0.4729084824    1.9872363748
C        3.0780292795   -0.6181084440    1.7049176301
N        6.1345417035   -3.4652674611   -1.6321583432
O       -0.3666089201    0.0697418349    2.6806947975
Cl       4.6144647052    0.0813096177    2.2117702453
H        1.4781898024   -2.5916688796   -0.5143157254
H       -0.4769489129   -1.6628030574    0.5942527321
H        2.9020838326   -2.5744522752   -1.9148515283
H        5.6524682035   -2.0298844638    1.3744778256
H        2.0959644309    0.6257725198    3.1683804789
H        4.7083454782   -3.7030369850   -3.1091641332
H        7.3497258802   -3.1292222805    0.0032842100
H       -1.2015448247   -0.2588643712    2.3106736012
22   
Generated by ForceBalance from scan.xyz: Frame 14 of 24
C        1.6459420388   -1.9679828677    0.3480456238
C        0.5269996536   -1.4549041887    0.9966931000
C        3.8953948566   -2.5445273899   -1.4672733412
C        5.3307082936   -2.4534159642    0.4350064550
C        1.9771023813   -0.0029988408    2.2740304753
C        4.9315747316   -3.1765613648   -2.1554067828
C        6.3012253199   -3.0928053142   -0.3386125199
C        2.9609511119   -1.5586527898    0.6442070991
C        4.0847938931   -2.1395231383   -0.1339462030
C        0.6940553291   -0.4686055643    1.9755186339
C        3.0804488566   -0.5338293866    1.6084984586
N        6.1277668462   -3.4546257487   -1.6178715432
O       -0.3500061505    0.0855653332    2.6659971392
Cl       4.6264981849    0.2192278921    1.9842541290
H        1.5018128669   -2.7561062666   -0.3838024047
H       -0.4651182562   -1.8258490582    0.7471435299
H        2.9675015506   -2.3314759036   -1.9893082457
H        5.5471234141   -2.2307173325    1.4724025957
H        2.1002430281    0.7857059650    3.0080473887
H        4.7908982861   -3.4738317093   -3.1937147960
H        7.2678178321   -3.3348143767    0.1008728945
H       -1.1821592190   -0.3101335314    2.3612481002
22   
Generated by ForceBalance from scan.xyz: Frame 15 of 24
C        1.6427948115   -2.0506263183    0.4221893435
C        0.5359442266   -1.5308522221    1.0891720567
C        3.9361133175   -2.4348492336   -1.5095738773
C        5.2603960059   -2.5762263041    0.4748232142
C        1.9872447199    0.0636287240    2.1919494392
C        4.9804237219   -3.0656391133   -2.1892588017
C        6.2431355180   -3.2016282729   -0.2945431938
C        2.9447297308   -1.5570237607    0.6182242756
C        4.0659660718   -2.1682743989   -0.1378106027
C        0.7110777731   -0.4685612034    1.9839012050
C        3.0774447241   -0.4774124931    1.5138029488
N        6.1249502593   -3.4502813802   -1.6075082626
O       -0.3223726069    0.0982233529    2.6815597532
Cl       4.6318498736    0.3016293818    1.7772455319
H        1.5049636556   -2.8894565528   -0.2537188128
H       -0.4520173735   -1.9542455492    0.9191663200
H        3.0441672062   -2.1320746386   -2.0509284731
H        5.4228631664   -2.4268491251    1.5366630142
H        2.1128361812    0.9016045546    2.8688460612
H        4.8923793797   -3.2678672525   -3.2558699315
H        7.1724667619   -3.5251988572    0.1719455726
H       -1.1507679261   -0.3499256786    2.4475352679
22   
Generated by ForceBalance from scan.xyz: Frame 16 of 24
C        1.6366572420   -2.1228686892    0.5034074824
C        0.5427208726   -1.5955846294    1.1883058851
C        3.9970164889   -2.3119785888   -1.5473818912
C        5.1736086706   -2.6877407469    0.5023955108
C        1.9783939753    0.1370140432    2.0907402845
C        5.0600134297   -2.9335136814   -2.2087305044
C        6.1806203994   -3.2920610820   -0.2524020564
C        2.9174147888   -1.5541207645    0.5866018963
C        4.0418458243   -2.1832663537   -0.1527547041
C        0.7172925812   -0.4593023787    1.9872699088
C        3.0549799804   -0.4139124861    1.3990577798
N        6.1416742210   -3.4225407206   -1.5872090064
O       -0.3047783925    0.1204280590    2.6922767993
Cl       4.6047864389    0.4022516105    1.5388789005
H        1.5050329936   -3.0128611213   -0.1055674883
H       -0.4336702090   -2.0689673233    1.1054961987
H        3.1539629775   -1.9232019996   -2.1120273342
H        5.2681886716   -2.6180300964    1.5816456098
H        2.1022944198    1.0246895585    2.7014373770
H        5.0415541907   -3.0380993399   -3.2927127847
H        7.0635530917   -3.6948020543    0.2417359542
H       -1.1229031269   -0.3782868564    2.5382664323
22   
Generated by ForceBalance from scan.xyz: Frame 17 of 24
C        1.6471805617   -2.2063656918    0.6088891488
C        0.5635996411   -1.6675681852    1.3034058937
C        4.0808962082   -2.1788387086   -1.5626003973
C        5.0798826714   -2.8261997026    0.5128802746
C        1.9519578059    0.2058394653    1.9702270544
C        5.1587692775   -2.7904977444   -2.2100994218
C        6.1111801900   -3.4081984946   -0.2277186482
C        2.8954850113   -1.5692058439    0.5712321091
C        4.0280454226   -2.1962033926   -0.1639617257
C        0.7193570701   -0.4555806027    1.9867933531
C        3.0176825165   -0.3570238207    1.2709798586
N        6.1644021985   -3.4006446252   -1.5681244548
O       -0.2957825422    0.1382035166    2.6912181648
Cl       4.5439991731    0.5111869611    1.2636209010
H        1.5300175195   -3.1501355090    0.0834927798
H       -0.3913317891   -2.1893802055    1.3150769665
H        3.2995171013   -1.6914706922   -2.1391352462
H        5.0963505220   -2.8616281927    1.5983902836
H        2.0628157306    1.1471902451    2.4973920441
H        5.2167447084   -2.7857368130   -3.2977325789
H        6.9351420854   -3.9061993968    0.2813854511
H       -1.0935553726   -0.4104574207    2.6262071035
22   
Generated by ForceBalance from scan.xyz: Frame 18 of 24
C        1.6984758050   -2.2796111918    0.7397491439
C        0.6136791690   -1.7322241952    1.4263957674
C        4.1806281706   -2.0299717939   -1.5447831083
C        4.9916184984   -2.9823975392    0.4953967640
C        1.9095529954    0.2784342469    1.8280762954
C        5.2535485613   -2.6461239181   -2.1950093576
C        6.0276536117   -3.5552075694   -0.2476850785
C        2.9015180524   -1.5793676298    0.5778490441
C        4.0374499615   -2.1976537556   -0.1625683233
C        0.7222811328   -0.4473519798    1.9719978817
C        2.9760367099   -0.2937171115    1.1373578030
N        6.1700766588   -3.4003622405   -1.5717255202
O       -0.2977025445    0.1583612391    2.6594559294
Cl       4.4521202979    0.6425219191    0.9744057894
H        1.6158482138   -3.2764500748    0.3155866369
H       -0.3072487071   -2.3018544802    1.5348685856
H        3.4724379153   -1.4257001219   -2.1047797313
H        4.9326447910   -3.1404373933    1.5686291627
H        1.9859947774    1.2731188556    2.2536756449
H        5.3817993593   -2.5271630817   -3.2700059742
H        6.7797644626   -4.1686565729    0.2465105331
H       -1.0611472132   -0.4398235003    2.6911453553
22   
Generated by ForceBalance from scan.xyz: Frame 19 of 24
C        2.7407063375   -0.2754375069    0.6445271559
C        1.7034106293    0.3352213103    1.3500137030
C        5.0790878105   -2.8602669696    0.4879282984
C        4.0642254393   -2.2195984665   -1.5817861010
C        0.8360311157   -1.8549170365    1.9265414345
C        6.1475518958   -3.3662132792   -0.2557031948
C        5.1799685103   -2.7556180109   -2.2322086327
C        2.8580555495   -1.6699076608    0.5561736632
C        3.9999581786   -2.2725603369   -0.1844200790
C        0.7476762683   -0.4603669082    1.9933929576
C        1.8846744320   -2.4371962024    1.2175365801
N        6.2134422482   -3.3223688533   -1.5948912964
O       -0.3002066842    0.0632583901    2.7053782957
Cl       1.9528262224   -4.1905160969    1.1464582239
H        3.4874935037    0.3405130326    0.1512541274
H        1.6434209602    1.4206086031    1.4015406730
H        5.0854178945   -2.9262023021    1.5720966691
H        3.2546802886   -1.7773489860   -2.1558800628
H        0.0885867169   -2.4643935612    2.4227228198
H        6.9953066157   -3.8259270401    0.2503073357
H        5.2440180888   -2.7276533560   -3.3191413393
H       -0.2542089736    1.0321384021    2.6761119448
22   
Generated by ForceBalance from scan.xyz: Frame 20 of 24
C        2.6675721287   -0.3018316756    0.5329230122
C        1.6320572757    0.3217581054    1.2274247603
C        5.0110776967   -3.0170100066    0.4673861447
C        4.1410061645   -2.0766766543   -1.5520628692
C        0.9102510581   -1.8406873083    2.0466739800
C        6.0830951632   -3.4992998765   -0.2858179594
C        5.2536423368   -2.6035764786   -2.2137378365
C        2.8623571711   -1.6917611627    0.5723309134
C        4.0011726609   -2.2858138236   -0.1733493680
C        0.7494681462   -0.4523501465    1.9902400470
C        1.9559736931   -2.4387252910    1.3468445202
N        6.2195402988   -3.3061456200   -1.6064404416
O       -0.2914215787    0.0845080323    2.7016435497
Cl       2.0783991571   -4.1901629982    1.4249696036
H        3.3606569630    0.3019565085   -0.0461442397
H        1.5182084055    1.4029665563    1.1802985745
H        4.9683955287   -3.2045940296    1.5357330227
H        3.3865562718   -1.5254832875   -2.1067525719
H        0.2146834364   -2.4364906242    2.6275316547
H        6.8766101773   -4.0663242982    0.1986915170
H        5.3713363340   -2.4547770551   -3.2862474588
H       -0.3005042563    1.0470983735    2.5787364446
22   
Generated by ForceBalance from scan.xyz: Frame 21 of 24
C        2.6117624605   -0.3207186484    0.4673398047
C        1.5604692163    0.3071031623    1.1305119566
C        4.9679057383   -3.1425583823    0.4359058442
C        4.2135227284   -1.9531888673   -1.4949531666
C        0.9709204338   -1.8145052496    2.1362120725
C        6.0195445563   -3.6264787312   -0.3443830046
C        5.2989740516   -2.4928022168   -2.1879191743
C        2.8956415842   -1.6900711249    0.6189982392
C        4.0289380860   -2.2738594241   -0.1405598836
C        0.7368519739   -0.4455656687    1.9758988370
C        2.0316111683   -2.4170212075    1.4627470522
N        6.1995700637   -3.3192226209   -1.6376255830
O       -0.3153527512    0.0930195162    2.6676139284
Cl       2.1930877571   -4.1571570593    1.6609882925
H        3.2614531933    0.2732464654   -0.1686928221
H        1.3892122565    1.3732884051    0.9958739658
H        4.9018446787   -3.4245447245    1.4807518287
H        3.5079482215   -1.3107506059   -2.0141402256
H        0.3138432950   -2.3973703943    2.7723342889
H        6.7578972603   -4.2948457131    0.0961931336
H        5.4465677877   -2.2534383249   -3.2401714724
H       -0.3788863081    1.0405616828    2.4676630337
22   
Generated by ForceBalance from scan.xyz: Frame 22 of 24
C        2.5652639474   -0.3405287809    0.4237653491
C        1.4908012862    0.2807689123    1.0512530479
C        4.9342127742   -3.2446908345    0.3941577213
C        4.2982147450   -1.8397033936   -1.4246712219
C        1.0327557400   -1.7819532281    2.2222886489
C        5.9548236215   -3.7378520585   -0.4214962698
C        5.3453592415   -2.3987617276   -2.1573278276
C        2.9427022155   -1.6748713358    0.6770601535
C        4.0733670619   -2.2494141138   -0.0972516940
C        0.7200596266   -0.4449312278    1.9666961632
C        2.1153691346   -2.3806479830    1.5792275461
N        6.1756505595   -3.3377793290   -1.6814869108
O       -0.3505947911    0.0872620176    2.6331081113
Cl       2.3168729362   -4.0995568837    1.9016373436
H        3.1726058514    0.2472837930   -0.2568529959
H        1.2606809418    1.3220101325    0.8344504058
H        4.8528565307   -3.6095265248    1.4098599757
H        3.6466620764   -1.1168240050   -1.9053807311
H        0.4133380539   -2.3515889054    2.9062471750
H        6.6308743541   -4.4995863688   -0.0359009870
H        5.5170544869   -2.0823928348   -3.1852677341
H       -0.4695331111    1.0117610976    2.3627685950
22   
Generated by ForceBalance from scan.xyz: Frame 23 of 24
C        2.4980902084   -0.3812937618    0.3596226777
C        1.4106832058    0.2406863898    0.9596836037
C        4.8636681671   -3.3555988564    0.3237437998
C        4.4051877644   -1.7369461474   -1.3543889332
C        1.0920552246   -1.7272272297    2.3118430930
C        5.8707974949   -3.8468221337   -0.5107305036
C        5.4289839980   -2.3025030025   -2.1119115291
C        2.9637001600   -1.6695209753    0.7060060613
C        4.0983578056   -2.2440334050   -0.0736782715
C        0.6999119056   -0.4368461124    1.9559591989
C        2.1866744071   -2.3292699394    1.6901234922
N        6.1702277282   -3.3476092309   -1.7163116629
O       -0.3790700066    0.0967248559    2.6058983538
Cl       2.4459169599   -4.0008680667    2.1858663273
H        3.0501333012    0.1895935461   -0.3771742670
H        1.1250604333    1.2464681948    0.6581334819
H        4.7351858966   -3.8175392724    1.2908410674
H        3.8366888545   -0.9276413807   -1.7974197965
H        0.5234964754   -2.2661366679    3.0615491890
H        6.4668305530   -4.6973246528   -0.1829178672
H        5.6550923500   -1.8991490951   -3.0979982869
H       -0.5533432806    0.9872196993    2.2614450058
22   
Generated by ForceBalance from scan.xyz: Frame 24 of 24
C        2.3443455888   -0.4941965376    0.2174648966
C        1.2846183692    0.1541824289    0.8364996596
C        4.6954467782   -3.5107903253    0.1721270591
C        4.5534545871   -1.6283821362   -1.2580712472
C        1.1935403981   -1.6305294518    2.4418593895
C        5.7570155073   -3.9572411378   -0.6197989423
C        5.6179612170   -2.1576268285   -1.9833322551
C        2.8940787234   -1.7244055627    0.6495672388
C        4.0392285678   -2.3005987750   -0.1258004015
C        0.6954799794   -0.4189208395    1.9673176022
C        2.2609780706   -2.2623800774    1.8009966837
N        6.2346611717   -3.3116095736   -1.6894843946
O       -0.3512492772    0.1451359523    2.6425235037
Cl       2.7133095583   -3.7778309733    2.5857135269
H        2.7609168454   -0.0060991989   -0.6521346098
H        0.9223331321    1.0998139173    0.4383012592
H        4.4076801933   -4.1263610322    1.0071368156
H        4.1502629995   -0.6872588866   -1.6076562998
H        0.7418873629   -2.0804165439    3.3188365122
H        6.2471235811   -4.8965586661   -0.3673031580
H        5.9945408160   -1.6187729116   -2.8516863592
H       -0.5998027405    0.9785703753    2.2116177682
