24   
Generated by ForceBalance from scan.xyz: Frame 1 of 24
C       -0.6391991585   -2.2404642067    3.2360592432
C       -0.6508804920   -1.1552791283    2.3594588522
C       -2.9997544548   -2.5032367141    2.8209760747
C       -1.8317815504   -2.9381229982    3.4747735544
C       -1.8667418247   -0.8270109974    1.7632165786
C       -1.0413187446    0.0914967724   -0.3793339336
C       -1.5602835440    1.6134934238    1.5038259409
C       -3.3690187005    0.5010403732    0.2761053018
N       -2.9989175191   -1.4686180488    1.9796406581
N       -1.9575514290    0.3358834747    0.7988214317
O       -1.9451182302   -4.0079330559    4.2928107312
H        0.2883576703   -2.5368933397    3.7194123038
H        0.2687632726   -0.6120940669    2.1688422323
H       -3.9412640936   -3.0188588029    2.9914030945
H       -1.1396893780    0.9236543654   -1.0770530673
H       -0.0125795110    0.0215137280   -0.0312937021
H       -1.3370127714   -0.8420971087   -0.8568396995
H       -1.6573978477    2.4438868835    0.8037982832
H       -2.2231940390    1.7557296607    2.3566883778
H       -0.5291949709    1.5354538447    1.8431828911
H       -3.3597292417    1.3493260957   -0.4081876429
H       -3.6698717056   -0.4086149057   -0.2374937856
H       -4.0416092663    0.6826797381    1.1105268146
H       -1.1704763561   -4.0969021879    4.8733170006
24   
Generated by ForceBalance from scan.xyz: Frame 2 of 24
C       -0.6250456317   -2.2557513100    3.2203241281
C       -0.6425430279   -1.1639758665    2.3520048756
C       -2.9873701043   -2.5171968055    2.8153592736
C       -1.8158108404   -2.9570913690    3.4565723739
C       -1.8612160209   -0.8356057209    1.7607075388
C       -1.0428508390    0.0948302329   -0.3789691772
C       -1.5586451114    1.6070076135    1.5133203235
C       -3.3694553032    0.4987141005    0.2845245820
N       -2.9918894135   -1.4787407338    1.9769336214
N       -1.9563947063    0.3326204688    0.8027425433
O       -1.9149605705   -4.0422206139    4.2619962571
H        0.3041405278   -2.5581972013    3.6962546081
H        0.2750451804   -0.6175469872    2.1607735319
H       -3.9276997789   -3.0339967259    2.9885737439
H       -1.1450311076    0.9297424780   -1.0728036437
H       -0.0129862682    0.0254770415   -0.0341760710
H       -1.3380464075   -0.8373264987   -0.8595979129
H       -1.6599404427    2.4409695730    0.8181679047
H       -2.2186682633    1.7435488053    2.3693582722
H       -0.5261231883    1.5290689750    1.8482769923
H       -3.3628628373    1.3503688496   -0.3955893038
H       -3.6705811838   -0.4087242337   -0.2328336519
H       -4.0400951216    0.6754547522    1.1215586733
H       -1.2677917101   -4.0095818285    4.9863691896
24   
Generated by ForceBalance from scan.xyz: Frame 3 of 24
C       -0.6079872936   -2.2748048253    3.2149310101
C       -0.6302213690   -1.1764306081    2.3552687811
C       -2.9681550895   -2.5453071058    2.8117270821
C       -1.7951139712   -2.9834282331    3.4469243236
C       -1.8518864293   -0.8512485687    1.7669607546
C       -1.0437750255    0.0864424176   -0.3729530168
C       -1.5498951115    1.5929452533    1.5269589769
C       -3.3672364588    0.4900739366    0.3029435665
N       -2.9790511561   -1.5005166637    1.9781174592
N       -1.9517698316    0.3213335891    0.8138118678
O       -1.8728023248   -4.0863573095    4.2389740360
H        0.3212589804   -2.5819031667    3.6870340270
H        0.2843123820   -0.6245362194    2.1650933360
H       -3.9055248231   -3.0689039502    2.9803672299
H       -1.1502138301    0.9226645186   -1.0645445983
H       -0.0121848349    0.0171417364   -0.0333263927
H       -1.3407531214   -0.8449371964   -0.8540087824
H       -1.6553245534    2.4292456143    0.8352863943
H       -2.2051569669    1.7265980594    2.3871209607
H       -0.5154637538    1.5142832298    1.8556309810
H       -3.3635468092    1.3449616873   -0.3731142729
H       -3.6711244369   -0.4147638366   -0.2172573057
H       -4.0338862349    0.6631869212    1.1439549521
H       -1.4033511409   -3.9560016148    5.0797768518
24   
Generated by ForceBalance from scan.xyz: Frame 4 of 24
C       -0.5896518926   -2.2779529045    3.2078515691
C       -0.6196425969   -1.1766922809    2.3521251469
C       -2.9490432377   -2.5599093218    2.8062611652
C       -1.7740101596   -2.9905851456    3.4389612522
C       -1.8450151294   -0.8550524147    1.7683710431
C       -1.0490315047    0.0850277106   -0.3748870899
C       -1.5448610296    1.5897539932    1.5297107344
C       -3.3690655062    0.4883940112    0.3141831484
N       -2.9685475959   -1.5100126921    1.9764417250
N       -1.9507605693    0.3191326943    0.8170133040
O       -1.8248223119   -4.1089619465    4.2203002528
H        0.3394392478   -2.5884020689    3.6774859911
H        0.2915562542   -0.6203669608    2.1590455679
H       -3.8824359945   -3.0924356576    2.9692212118
H       -1.1601911608    0.9214362406   -1.0654766007
H       -0.0155255346    0.0163984438   -0.0410322205
H       -1.3481374742   -0.8463638734   -0.8546249773
H       -1.6543942020    2.4267827187    0.8396130037
H       -2.1953567464    1.7224722039    2.3936455438
H       -0.5086017992    1.5110757716    1.8524237609
H       -3.3693470230    1.3449103783   -0.3598078844
H       -3.6754909885   -0.4153075554   -0.2064261268
H       -4.0311672229    0.6594593032    1.1592469662
H       -1.5704577814   -3.9150863477    5.1379022568
24   
Generated by ForceBalance from scan.xyz: Frame 5 of 24
C       -0.5731124919   -2.2772236880    3.2071097423
C       -0.6071204911   -1.1751356485    2.3521320156
C       -2.9290619111   -2.5727038479    2.8051722936
C       -1.7537135122   -2.9935880505    3.4419911927
C       -1.8362011097   -0.8583557492    1.7736389631
C       -1.0541654318    0.0783332246   -0.3758104456
C       -1.5381539704    1.5864435889    1.5295739421
C       -3.3700253698    0.4827837508    0.3275772956
N       -2.9566893426   -1.5186852787    1.9795292082
N       -1.9484555431    0.3146748173    0.8214830769
O       -1.7732937598   -4.1254277333    4.2118789036
H        0.3554801585   -2.5892261033    3.6760595416
H        0.3012980059   -0.6149901204    2.1568075196
H       -3.8587476612   -3.1141538649    2.9605354857
H       -1.1701653218    0.9133280530   -1.0672976364
H       -0.0185735941    0.0105462171   -0.0483286771
H       -1.3561247343   -0.8541045635   -0.8517303368
H       -1.6526148920    2.4220983327    0.8386641152
H       -2.1830062050    1.7205965466    2.3975191724
H       -0.4997384337    1.5089550895    1.8454673059
H       -3.3752699319    1.3392632236   -0.3464178489
H       -3.6791154700   -0.4211669260   -0.1909558065
H       -4.0267828380    0.6535331664    1.1769320880
H       -1.7585636840   -3.9141029886    5.1603130403
24   
Generated by ForceBalance from scan.xyz: Frame 6 of 24
C       -0.5557885916   -2.2699595960    3.2084596887
C       -0.5950758616   -1.1706487620    2.3503398625
C       -2.9100512432   -2.5803802483    2.8103719762
C       -1.7329857603   -2.9878932963    3.4526334714
C       -1.8281009392   -0.8577469311    1.7784438056
C       -1.0600319938    0.0733826891   -0.3784939180
C       -1.5330717333    1.5865132656    1.5256288959
C       -3.3717367440    0.4792980936    0.3376200114
N       -2.9448979879   -1.5236692053    1.9877236622
N       -1.9472598254    0.3126640611    0.8235499787
O       -1.7164267853   -4.1274230270    4.2132440003
H        0.3728965272   -2.5810377983    3.6773683762
H        0.3108376649   -0.6082189196    2.1499825439
H       -3.8366339577   -3.1293122882    2.9597189021
H       -1.1807435488    0.9063071178   -1.0716723902
H       -0.0224917529    0.0071068154   -0.0569200297
H       -1.3643301952   -0.8606179756   -0.8498412860
H       -1.6517936146    2.4200885555    0.8329444845
H       -2.1728480493    1.7230622151    2.3969518258
H       -0.4928240430    1.5102297922    1.8356706415
H       -3.3812209612    1.3346479799   -0.3377706257
H       -3.6836015838   -0.4255670274   -0.1775531395
H       -4.0236226353    0.6514708048    1.1904506818
H       -1.9421601043   -3.9439568901    5.1405353992
24   
Generated by ForceBalance from scan.xyz: Frame 7 of 24
C       -0.5349595287   -2.2561274384    3.2067997398
C       -0.5821062519   -1.1620572771    2.3429855299
C       -2.8904114633   -2.5739075510    2.8240346755
C       -1.7096916427   -2.9721746756    3.4673514660
C       -1.8200635502   -0.8503452901    1.7813221263
C       -1.0662095796    0.0766335187   -0.3829206742
C       -1.5342667684    1.5932466514    1.5194702175
C       -3.3753074929    0.4765213749    0.3439380249
N       -2.9339649741   -1.5178497505    2.0018189530
N       -1.9479579262    0.3160992665    0.8231085552
O       -1.6586556221   -4.1106008817    4.2248213876
H        0.3958450339   -2.5647457720    3.6727284359
H        0.3218769110   -0.5997077267    2.1338687921
H       -3.8160689700   -3.1244418754    2.9753665866
H       -1.1933583506    0.9072613245   -1.0777086752
H       -0.0267789650    0.0148198083   -0.0667328710
H       -1.3697263665   -0.8597020919   -0.8501132512
H       -1.6590818212    2.4246211259    0.8251873900
H       -2.1699002317    1.7300832033    2.3937615817
H       -0.4922104305    1.5207919217    1.8244548832
H       -3.3909888595    1.3290437785   -0.3349044867
H       -3.6870477168   -0.4313940176   -0.1659457849
H       -4.0232965776    0.6502555604    1.1994108496
H       -2.0999422915   -3.9920064316    5.0825688955
24   
Generated by ForceBalance from scan.xyz: Frame 8 of 24
C       -0.5216239879   -2.2568273226    3.2225680397
C       -0.5722705713   -1.1677577040    2.3543657935
C       -2.8761632614   -2.5850098644    2.8372002394
C       -1.6951771696   -2.9749705082    3.4871760769
C       -1.8111652114   -0.8597521521    1.7914765937
C       -1.0666326567    0.0554984698   -0.3803471964
C       -1.5229019886    1.5823335135    1.5164319531
C       -3.3714054845    0.4622542074    0.3566791307
N       -2.9223039345   -1.5307054813    2.0138097229
N       -1.9419201331    0.3021392545    0.8289246972
O       -1.6214324599   -4.1026538815    4.2514855636
H        0.4083962339   -2.5596564916    3.6936384575
H        0.3303156860   -0.6033209102    2.1448677307
H       -3.8025541863   -3.1354483125    2.9868912785
H       -1.1946437057    0.8835210843   -1.0781271219
H       -0.0259685834   -0.0080060247   -0.0684476109
H       -1.3747888600   -0.8820333190   -0.8420492817
H       -1.6493814776    2.4101658306    0.8182246589
H       -2.1541986770    1.7249238492    2.3929323720
H       -0.4796106414    1.5099573825    1.8170524801
H       -3.3902537427    1.3126396143   -0.3247551311
H       -3.6865724894   -0.4470278694   -0.1486105497
H       -4.0146130159    0.6392470543    1.2151522249
H       -2.2465035767   -4.0741215149    4.9952377569
24   
Generated by ForceBalance from scan.xyz: Frame 9 of 24
C       -0.5058494491   -2.2491564892    3.2291315913
C       -0.5634559642   -1.1664138802    2.3556263142
C       -2.8646261392   -2.5792657697    2.8578366924
C       -1.6793618947   -2.9658755326    3.5036230674
C       -1.8051158239   -0.8594695081    1.7963739734
C       -1.0687294570    0.0497753888   -0.3808669753
C       -1.5214108154    1.5816965537    1.5122261230
C       -3.3716132447    0.4547555735    0.3622008916
N       -2.9141172170   -1.5294624816    2.0297418876
N       -1.9405322288    0.2984810909    0.8303708798
O       -1.5893577349   -4.0752420789    4.2836730986
H        0.4259806057   -2.5472728555    3.6995718282
H        0.3379226795   -0.6023548765    2.1401043387
H       -3.7930575917   -3.1247258106    3.0159824507
H       -1.1992501968    0.8759852863   -1.0803562060
H       -0.0271023292   -0.0121605774   -0.0718508434
H       -1.3773951043   -0.8891656142   -0.8393330902
H       -1.6509642884    2.4071138975    0.8116897833
H       -2.1502662939    1.7261495555    2.3901609080
H       -0.4771669179    1.5115735102    1.8101354753
H       -3.3941113583    1.3023345908   -0.3226160284
H       -3.6870620204   -0.4570201864   -0.1384537486
H       -4.0122672325    0.6342235611    1.2220541006
H       -2.3473404872   -4.1498255236    4.8877526052
24   
Generated by ForceBalance from scan.xyz: Frame 10 of 24
C       -0.4959914372   -2.2439983152    3.2365536215
C       -0.5559391160   -1.1665447404    2.3585476729
C       -2.8572799294   -2.5716857855    2.8802653727
C       -1.6689365205   -2.9605680777    3.5198638429
C       -1.7998604931   -0.8609165849    1.8016624095
C       -1.0689455094    0.0424906694   -0.3799904623
C       -1.5198442239    1.5792303349    1.5092964298
C       -3.3707054045    0.4458616903    0.3668132248
N       -2.9079828067   -1.5277967753    2.0454500042
N       -1.9385157946    0.2932520866    0.8323092287
O       -1.5723271627   -4.0460446321    4.3245292884
H        0.4373089994   -2.5385849968    3.7061948382
H        0.3454012893   -0.6045559776    2.1374362282
H       -3.7889798225   -3.1090703578    3.0491544560
H       -1.2011793539    0.8669758891   -1.0812158646
H       -0.0266787654   -0.0180052104   -0.0728450030
H       -1.3777388154   -0.8977465103   -0.8356848064
H       -1.6518697684    2.4024258973    0.8065782987
H       -2.1470223119    1.7253183877    2.3881472625
H       -0.4749066548    1.5112345194    1.8053347392
H       -3.3960463999    1.2906177071   -0.3213836545
H       -3.6859939137   -0.4683669055   -0.1295281624
H       -4.0096275441    0.6278395381    1.2274106577
H       -2.4143666758   -4.2321588607    4.7738542358
24   
Generated by ForceBalance from scan.xyz: Frame 11 of 24
C       -0.4924898624   -2.2288415800    3.2442089924
C       -0.5536515897   -1.1562144169    2.3616984668
C       -2.8552357134   -2.5562477821    2.8974318535
C       -1.6643136831   -2.9474418846    3.5311280950
C       -1.7985536270   -0.8545278945    1.8035254195
C       -1.0734131497    0.0399348979   -0.3833099685
C       -1.5186432250    1.5844459140    1.5007956829
C       -3.3729503745    0.4467280113    0.3685984457
N       -2.9059076815   -1.5196038135    2.0540994922
N       -1.9394899089    0.2957053035    0.8303621166
O       -1.5672273517   -4.0067876470    4.3646037039
H        0.4414681613   -2.5190547407    3.7152052408
H        0.3473331399   -0.5948375732    2.1375345811
H       -3.7893709108   -3.0869372175    3.0758384867
H       -1.2073119173    0.8615785430   -1.0875743813
H       -0.0303333041   -0.0196060396   -0.0786449469
H       -1.3836129129   -0.9021069817   -0.8342831224
H       -1.6526145269    2.4048656996    0.7951906477
H       -2.1430769005    1.7341044563    2.3809908103
H       -0.4728193108    1.5175819235    1.7939068338
H       -3.4004301233    1.2890043840   -0.3225452086
H       -3.6896844258   -0.4692652470   -0.1235814036
H       -4.0092637296    0.6317313386    1.2304915368
H       -2.4444955323   -4.3130730085    4.6520633925
24   
Generated by ForceBalance from scan.xyz: Frame 12 of 24
C       -0.4913909629   -2.2261418301    3.2536365928
C       -0.5530931810   -1.1579687074    2.3662530774
C       -2.8567061587   -2.5449025341    2.9192310248
C       -1.6636231812   -2.9433637185    3.5442126208
C       -1.7978617492   -0.8559535502    1.8072936096
C       -1.0721119141    0.0325554294   -0.3821602838
C       -1.5167648583    1.5817770627    1.4980663890
C       -3.3714361133    0.4422633820    0.3683506163
N       -2.9061690261   -1.5156230160    2.0668144354
N       -1.9381574042    0.2915278004    0.8307474792
O       -1.5731877421   -3.9747238918    4.4111872822
H        0.4429953925   -2.5152646374    3.7244536037
H        0.3489490401   -0.6005190556    2.1366637092
H       -3.7940887989   -3.0656967936    3.1099749647
H       -1.2047492930    0.8530549144   -1.0879989665
H       -0.0291575574   -0.0276366816   -0.0772039450
H       -1.3832807379   -0.9099162425   -0.8315602474
H       -1.6504777736    2.4005595535    0.7905066217
H       -2.1410578944    1.7336614346    2.3779787772
H       -0.4709539831    1.5150331636    1.7912925301
H       -3.3981064436    1.2822289287   -0.3256403225
H       -3.6888657996   -0.4750777060   -0.1209064721
H       -4.0077448329    0.6306193101    1.2294776760
H       -2.4367378398   -4.4021359424    4.5448339869
24   
Generated by ForceBalance from scan.xyz: Frame 13 of 24
C       -0.5124360146   -2.1709781071    3.3133033369
C       -0.5689716555   -1.1107493282    2.4156224710
C       -2.8634098576   -2.5335664727    2.9238467553
C       -1.6774235882   -2.9098985915    3.5755638074
C       -1.8036716999   -0.8399617260    1.8202689396
C       -1.0119062508    0.0832764046   -0.3336192110
C       -1.6025101752    1.6058406247    1.5281862813
C       -3.3572529261    0.3994826813    0.3098306675
N       -2.9074975038   -1.5157136482    2.0575801380
N       -1.9422584360    0.3030559319    0.8383639502
O       -1.5997562958   -3.9118741374    4.4791846693
H        0.4137132086   -2.4382150692    3.8124592843
H        0.3279654839   -0.5373096408    2.2061815170
H       -3.7969776079   -3.0659788873    3.1000855515
H       -1.1449651140    0.9006942114   -1.0428690057
H        0.0178295924    0.0641967955    0.0176837036
H       -1.2641230424   -0.8689502326   -0.7991411975
H       -1.7347419294    2.4223560208    0.8176687955
H       -2.2724415790    1.7291601598    2.3784955556
H       -0.5696945483    1.5767546702    1.8699959722
H       -3.3827064086    1.2359376730   -0.3884224798
H       -3.6170860246   -0.5304732561   -0.1898250293
H       -4.0395522336    0.5660233140    1.1394883755
H       -2.3887942449   -4.4797591703    4.4476638179
24   
Generated by ForceBalance from scan.xyz: Frame 14 of 24
C       -0.5218479462   -2.1683362279    3.3275979793
C       -0.5751126170   -1.1105633013    2.4255689401
C       -2.8745034131   -2.5217366150    2.9400041325
C       -1.6883561998   -2.9039699358    3.5876076642
C       -1.8073629741   -0.8396168402    1.8263962272
C       -1.0118015585    0.0736161726   -0.3303446373
C       -1.5966980020    1.6048378132    1.5264044100
C       -3.3560792115    0.4017612275    0.3115909854
N       -2.9143697615   -1.5098202886    2.0661351891
N       -1.9414741216    0.3011527574    0.8406696961
O       -1.6268885235   -3.8851504396    4.5195672615
H        0.4021559088   -2.4354090235    3.8308679763
H        0.3231626629   -0.5394839868    2.2155533423
H       -3.8106520390   -3.0459065475    3.1250524134
H       -1.1413243074    0.8892986705   -1.0422288761
H        0.0177629373    0.0512262916    0.0212906058
H       -1.2680155837   -0.8789780362   -0.7929370258
H       -1.7255454152    2.4194048430    0.8130608333
H       -2.2664460512    1.7336799294    2.3760479796
H       -0.5641209439    1.5729645088    1.8685954947
H       -3.3779604688    1.2364343533   -0.3889176730
H       -3.6195679865   -0.5284513343   -0.1856491613
H       -4.0378808016    0.5732109294    1.1406384252
H       -2.3017000981   -4.5675247527    4.3629133273
24   
Generated by ForceBalance from scan.xyz: Frame 15 of 24
C       -0.5346857537   -2.1617799048    3.3229069946
C       -0.5825518825   -1.1064612694    2.4156244766
C       -2.8894160073   -2.5000913548    2.9422381432
C       -1.7038615939   -2.8894091068    3.5861104796
C       -1.8134928864   -0.8326132620    1.8171954267
C       -1.0126832891    0.0752480222   -0.3404682008
C       -1.5974553283    1.6105807595    1.5133734158
C       -3.3574170663    0.4091112050    0.2972306668
N       -2.9256025276   -1.4934179607    2.0618267517
N       -1.9437001416    0.3065975019    0.8286541079
O       -1.6623195431   -3.8549605478    4.5420164633
H        0.3877905207   -2.4306023447    3.8280991635
H        0.3182631136   -0.5407033482    2.2021516278
H       -3.8280772026   -3.0149254567    3.1379630198
H       -1.1399061078    0.8898982492   -1.0539145807
H        0.0164097999    0.0518829790    0.0123959130
H       -1.2699121435   -0.8776183741   -0.8019562604
H       -1.7257662461    2.4245385055    0.7992585001
H       -2.2670205575    1.7408189822    2.3629577917
H       -0.5648634269    1.5779093821    1.8554389162
H       -3.3760959825    1.2418098708   -0.4057060885
H       -3.6223474516   -0.5219143473   -0.1977830576
H       -4.0400478237    0.5844989945    1.1247309942
H       -2.1828821236   -4.6346698261    4.2849813406
24   
Generated by ForceBalance from scan.xyz: Frame 16 of 24
C       -0.5528147545   -2.1645802989    3.3342306521
C       -0.5915631053   -1.1110754018    2.4226741038
C       -2.9086075002   -2.4898241356    2.9531950070
C       -1.7261135344   -2.8834716297    3.5981538655
C       -1.8204834309   -0.8329939572    1.8234861876
C       -1.0115796481    0.0663386394   -0.3350681664
C       -1.5909626388    1.6085272617    1.5150609295
C       -3.3556114561    0.4148420331    0.2977765552
N       -2.9378838367   -1.4852106582    2.0690693909
N       -1.9432622477    0.3052304472    0.8319888966
O       -1.7089331681   -3.8426203254    4.5682047821
H        0.3664795893   -2.4355223943    3.8441804927
H        0.3120200474   -0.5497268215    2.2092037792
H       -3.8492366995   -2.9980287292    3.1545991646
H       -1.1333315069    0.8803109272   -1.0502056532
H        0.0168112019    0.0380114983    0.0194450428
H       -1.2734319855   -0.8859055347   -0.7952722945
H       -1.7137285277    2.4217329360    0.7991482990
H       -2.2613137328    1.7440631759    2.3632084628
H       -0.5591363770    1.5708833879    1.8589010144
H       -3.3678755723    1.2462190371   -0.4068719978
H       -3.6251498354   -0.5155563333   -0.1959015371
H       -4.0388003048    0.5959086327    1.1235488234
H       -2.0366007465   -4.6953784932    4.2363153237
24   
Generated by ForceBalance from scan.xyz: Frame 17 of 24
C       -0.5714958086   -2.1629971072    3.3357018330
C       -0.6022776537   -1.1117326079    2.4196740036
C       -2.9271556779   -2.4770581109    2.9495538829
C       -1.7497250417   -2.8718682175    3.6008939334
C       -1.8293409808   -0.8282515576    1.8200861460
C       -1.0134951947    0.0621438745   -0.3399490305
C       -1.5864625440    1.6113306721    1.5068092609
C       -3.3564337972    0.4245185690    0.2901162684
N       -2.9516208324   -1.4725043035    2.0644453788
N       -1.9449675100    0.3086224241    0.8257076080
O       -1.7607959325   -3.8336466741    4.5741713639
H        0.3453631674   -2.4345807874    3.8498861743
H        0.3040550551   -0.5547760115    2.2063640619
H       -3.8684293831   -2.9823029858    3.1532868586
H       -1.1307413072    0.8749698062   -1.0571129000
H        0.0144976982    0.0296289589    0.0153232726
H       -1.2798165960   -0.8898054316   -0.7982196516
H       -1.7054334348    2.4237583398    0.7894059123
H       -2.2563165557    1.7515708058    2.3545958690
H       -0.5548539486    1.5695251334    1.8507811637
H       -3.3635954247    1.2544652182   -0.4162748116
H       -3.6304921524   -0.5055153320   -0.2017641779
H       -4.0392860999    0.6109162406    1.1149845487
H       -1.8657960319   -4.7241030728    4.1992032147
24   
Generated by ForceBalance from scan.xyz: Frame 18 of 24
C       -0.5915435416   -2.1638313389    3.3375011565
C       -0.6143274743   -1.1144818253    2.4183844204
C       -2.9466330428   -2.4715022340    2.9415667022
C       -1.7749922909   -2.8637222731    3.6030212038
C       -1.8394045303   -0.8246845236    1.8178707836
C       -1.0166054061    0.0563569907   -0.3436651284
C       -1.5799848672    1.6126941548    1.5001526852
C       -3.3574235010    0.4360024296    0.2844515609
N       -2.9651485439   -1.4641573566    2.0587466082
N       -1.9469446846    0.3113208511    0.8210813680
O       -1.8148531358   -3.8370920080    4.5665205864
H        0.3237160498   -2.4353177245    3.8549085668
H        0.2948176091   -0.5616198311    2.2063979504
H       -3.8873027242   -2.9787055242    3.1416832347
H       -1.1283503109    0.8684205582   -1.0625636612
H        0.0110078553    0.0179266488    0.0121207198
H       -1.2890204286   -0.8947457063   -0.8001260329
H       -1.6935783036    2.4246313602    0.7813444564
H       -2.2490528234    1.7588123020    2.3475723408
H       -0.5486867294    1.5648365511    1.8442818542
H       -3.3584030553    1.2652302183   -0.4228232711
H       -3.6375347733   -0.4926697349   -0.2065157005
H       -4.0395336119    0.6279567772    1.1086669215
H       -1.6803004484   -4.7224214911    4.1889311906
24   
Generated by ForceBalance from scan.xyz: Frame 19 of 24
C       -0.6100251648   -2.1689452207    3.3384975809
C       -0.6258645119   -1.1203411376    2.4182377696
C       -2.9641422345   -2.4704718364    2.9299058214
C       -1.7987162536   -2.8610196498    3.6032582645
C       -1.8485957950   -0.8226177488    1.8166885280
C       -1.0198210666    0.0513599987   -0.3455245240
C       -1.5726196124    1.6126451107    1.4972252939
C       -3.3580216986    0.4470030722    0.2826588256
N       -2.9771637194   -1.4589659873    2.0522986076
N       -1.9482607002    0.3133266331    0.8191541636
O       -1.8659813868   -3.8499582377    4.5474621656
H        0.3050368478   -2.4406769593    3.8565347912
H        0.2865985854   -0.5722193735    2.2082012057
H       -3.9038567672   -2.9820977551    3.1218045737
H       -1.1263724695    0.8634295671   -1.0652209976
H        0.0075662839    0.0066459657    0.0102432898
H       -1.2984640261   -0.8983954718   -0.8010266975
H       -1.6805315717    2.4247945319    0.7777804546
H       -2.2408102567    1.7640098203    2.3444142337
H       -0.5417175265    1.5581616977    1.8415771723
H       -3.3537919657    1.2763725057   -0.4244401027
H       -3.6441578362   -0.4798178089   -0.2082733037
H       -4.0387670461    0.6431903331    1.1070443378
H       -1.4985882845   -4.6866442787    4.2167619373
24   
Generated by ForceBalance from scan.xyz: Frame 20 of 24
C       -0.6247207064   -2.1753071136    3.3352114764
C       -0.6373021118   -1.1248770682    2.4170936148
C       -2.9783259296   -2.4731879220    2.9120927128
C       -1.8171172249   -2.8639523804    3.5949422585
C       -1.8567730667   -0.8199599255    1.8128369291
C       -1.0244802372    0.0495890761   -0.3496052989
C       -1.5655604600    1.6137243566    1.4938499437
C       -3.3594235837    0.4594886860    0.2813435721
N       -2.9866148523   -1.4571560538    2.0414663280
N       -1.9499346987    0.3169017317    0.8162302437
O       -1.9067449600   -3.8667879925    4.5167713231
H        0.2913487216   -2.4468652980    3.8521276887
H        0.2778393725   -0.5798632982    2.2107698150
H       -3.9169198613   -2.9903061106    3.0938391885
H       -1.1265542312    0.8624388260   -1.0691109725
H        0.0029335827   -0.0017118611    0.0052970353
H       -1.3095162529   -0.8983673090   -0.8048765977
H       -1.6682297252    2.4265931939    0.7744343467
H       -2.2323576595    1.7696205782    2.3413062713
H       -0.5349071826    1.5525846642    1.8378475011
H       -3.3512781474    1.2900900488   -0.4242802330
H       -3.6514307867   -0.4648630341   -0.2106985325
H       -4.0381221698    0.6581597133    1.1068836161
H       -1.3367849183   -4.6185044054    4.2836944826
24   
Generated by ForceBalance from scan.xyz: Frame 21 of 24
C       -0.6383742985   -2.1772104680    3.3167285621
C       -0.6475351938   -1.1216073682    2.4046934737
C       -2.9896567046   -2.4766938731    2.8803298424
C       -1.8312435626   -2.8682178540    3.5707640238
C       -1.8642933333   -0.8125726940    1.7980713668
C       -1.0334471468    0.0582651765   -0.3637136922
C       -1.5619864091    1.6209783202    1.4839722306
C       -3.3645404343    0.4782599912    0.2744589475
N       -2.9936379519   -1.4552058143    2.0185147361
N       -1.9544101549    0.3273504533    0.8052968860
O       -1.9366214520   -3.8874177779    4.4650612844
H        0.2796631811   -2.4492142671    3.8304732737
H        0.2692342613   -0.5769666256    2.2046358810
H       -3.9265575609   -3.0009316673    3.0497285760
H       -1.1328149561    0.8733070315   -1.0811782348
H       -0.0055436159    0.0004846944   -0.0110607307
H       -1.3245656817   -0.8872050505   -0.8202696370
H       -1.6606902018    2.4355156897    0.7658689555
H       -2.2268263470    1.7795140078    2.3324624430
H       -0.5312873790    1.5537084562    1.8266477133
H       -3.3545565524    1.3119022750   -0.4275670731
H       -3.6619273829   -0.4426509724   -0.2206759691
H       -4.0402672152    0.6763873367    1.1026162905
H       -1.2074866516   -4.5227534892    4.3700045901
24   
Generated by ForceBalance from scan.xyz: Frame 22 of 24
C       -0.6447928663   -2.1998226510    3.3082145804
C       -0.6519667284   -1.1380454474    2.4034974490
C       -2.9985347759   -2.4862504710    2.8704222678
C       -1.8402287499   -2.8885143532    3.5584837148
C       -1.8667076557   -0.8205843703    1.7979709608
C       -1.0327332552    0.0575710867   -0.3592793213
C       -1.5573292282    1.6133559012    1.4949168968
C       -3.3626774666    0.4803927968    0.2805641790
N       -2.9981876781   -1.4614286025    2.0152658063
N       -1.9530478734    0.3237587120    0.8108501541
O       -1.9578481174   -3.9206034730    4.4284984293
H        0.2757441597   -2.4778557235    3.8148822323
H        0.2674128764   -0.5967280845    2.2064236949
H       -3.9370186652   -3.0090946723    3.0351329324
H       -1.1294895284    0.8761278783   -1.0731255050
H       -0.0050807554   -0.0047535388   -0.0066144955
H       -1.3263055415   -0.8850881573   -0.8200244111
H       -1.6538307132    2.4314701580    0.7805455473
H       -2.2215846001    1.7698062452    2.3442365307
H       -0.5267445162    1.5417312387    1.8371733137
H       -3.3507421916    1.3168036182   -0.4181332653
H       -3.6623012835   -0.4378517392   -0.2181925626
H       -4.0379167380    0.6767813408    1.1095482975
H       -1.1306750701   -4.4263730481    4.4962641744
24   
Generated by ForceBalance from scan.xyz: Frame 23 of 24
C       -0.6485264005   -2.2133088221    3.2842289079
C       -0.6555996078   -1.1436730331    2.3888088237
C       -3.0043077583   -2.4916137752    2.8492921614
C       -1.8435538177   -2.9046773079    3.5293156585
C       -1.8691519825   -0.8209365799    1.7846593810
C       -1.0364479667    0.0695527812   -0.3677322359
C       -1.5574824355    1.6149533226    1.4957556318
C       -3.3650558950    0.4910360491    0.2768650942
N       -3.0010191720   -1.4631726481    2.0001820604
N       -1.9551856691    0.3296393713    0.8050016370
O       -1.9658850777   -3.9480716805    4.3795637969
H        0.2744548305   -2.4966697069    3.7839342310
H        0.2647424958   -0.6026307047    2.1956059094
H       -3.9440805058   -3.0125907860    3.0128632963
H       -1.1327289965    0.8925954802   -1.0764927323
H       -0.0085564111    0.0036225923   -0.0163951523
H       -1.3316523830   -0.8699569072   -0.8338144726
H       -1.6529440665    2.4372537345    0.7860302023
H       -2.2211916279    1.7676532251    2.3461749961
H       -0.5268839649    1.5399539554    1.8372572464
H       -3.3527857621    1.3316262364   -0.4168077828
H       -3.6661226612   -0.4238438683   -0.2271689656
H       -4.0393974334    0.6831444878    1.1075702339
H       -1.0986419543   -4.3140548594    4.6222869308
24   
Generated by ForceBalance from scan.xyz: Frame 24 of 24
C       -0.6470730159   -2.2288692189    3.2590026381
C       -0.6553524716   -1.1512545255    2.3730303160
C       -3.0047757677   -2.4964963167    2.8336736134
C       -1.8410101115   -2.9230006648    3.5013419282
C       -1.8692119224   -0.8238899750    1.7724890138
C       -1.0385050258    0.0814084098   -0.3740849582
C       -1.5591536823    1.6143188923    1.4996925076
C       -3.3668897632    0.4971865834    0.2747922603
N       -3.0017249883   -1.4652603519    1.9887696599
N       -1.9565800982    0.3332867609    0.8009725679
O       -1.9623667122   -3.9790287361    4.3340033771
H        0.2783777149   -2.5184472243    3.7506652169
H        0.2654376703   -0.6103119734    2.1816183325
H       -3.9461629920   -3.0135586137    3.0003253680
H       -1.1354557610    0.9092271112   -1.0771640780
H       -0.0103640162    0.0134255803   -0.0238645015
H       -1.3336538362   -0.8550561295   -0.8462738657
H       -1.6546784336    2.4411342688    0.7952172336
H       -2.2229280535    1.7615352934    2.3510285969
H       -0.5285630965    1.5372038437    1.8407821262
H       -3.3554389550    1.3416995915   -0.4141193414
H       -3.6679101629   -0.4149504615   -0.2342538518
H       -4.0407458823    0.6842257816    1.1070159580
H       -1.1133973723   -4.2043359405    4.7506992601
