26   
Generated by ForceBalance from scan.xyz: Frame 1 of 24
C        1.7373204978   -1.1347436686   -0.0867023917
C        2.7518921444   -1.7803072018    1.9908200832
C        0.6622908923   -0.5765059876    0.5991302147
C        1.6648707477   -1.2432971704    2.6816695151
C        2.7956898069   -1.7590180830    0.5895463694
C        0.5798636792   -0.6391103679    2.0093322928
C        4.8989920284   -3.1331807097    0.1536899080
C       -1.4345927350    0.7522115004    1.9909518800
C       -0.4020397227    0.0680832408    4.1377266323
N        4.6751450349   -3.9525038342    1.2553285175
N        3.8810057878   -2.2554845412   -0.1804949033
N       -0.5249664974   -0.1353433785    2.7013184710
O        5.9379557924   -3.1800234524   -0.5027191343
H        1.7544972234   -1.0853914945   -1.1734469177
H        3.5818112657   -2.1898032190    2.5554270285
H       -0.1191875570   -0.0992662920    0.0203303824
H        1.6866225789   -1.2844330832    3.7641106520
H       -2.2327790061    1.0620937256    2.6676770010
H       -1.9066068660    0.2340993321    1.1500032336
H       -0.9377804490    1.6566966935    1.6038858132
H       -1.3421825661    0.4656543177    4.5240283506
H        0.4065013675    0.7674899675    4.4054358902
H       -0.2172080870   -0.8813906494    4.6503813082
H        5.3236063520   -4.7312933235    1.2719361397
H        3.7126084634   -4.2077890850    1.4496709457
H        4.1264486851   -1.7184514324   -1.0038122346
26   
Generated by ForceBalance from scan.xyz: Frame 2 of 24
C        1.7677660509   -1.1210332535   -0.0756282464
C        2.8250087051   -1.6764135586    2.0085527145
C        0.6754554878   -0.5936647900    0.6088650289
C        1.7210860195   -1.1775049909    2.6989968868
C        2.8574404923   -1.6792431580    0.6066847350
C        0.6074063631   -0.6316413732    2.0209343662
C        4.8594817050   -3.1710074300    0.1339180085
C       -1.4673932951    0.6681968092    1.9913644634
C       -0.3882714209    0.0759712537    4.1432044610
N        4.5204984807   -4.0201949019    1.1817209917
N        3.9695978071   -2.1481819716   -0.1420942800
N       -0.5116622520   -0.1613960587    2.7116687709
O        5.8961280231   -3.3055229163   -0.5146887317
H        1.7751391322   -1.0983848483   -1.1631223516
H        3.6751899715   -2.0507666825    2.5689529884
H       -0.1319662978   -0.1640441821    0.0284215516
H        1.7495729351   -1.1991537543    3.7817857776
H       -2.2731710971    0.9553941055    2.6690164485
H       -1.9220443455    0.1111222063    1.1659997992
H       -1.0157327456    1.5858426132    1.5810975412
H       -1.3423243749    0.4399279069    4.5283627654
H        0.3905527083    0.8152400265    4.3903752641
H       -0.1588941363   -0.8538749483    4.6733315983
H        5.0552455820   -4.8801661597    1.1500750958
H        3.5332795805   -4.1447156846    1.3787529884
H        4.2754435125   -1.5878024890   -0.9282208824
26   
Generated by ForceBalance from scan.xyz: Frame 3 of 24
C        1.8298164569   -1.1016039643   -0.0312297035
C        2.8787801105   -1.5563484991    2.0812591154
C        0.7081462225   -0.5997155797    0.6255839476
C        1.7475985333   -1.0870670117    2.7464070131
C        2.9322736503   -1.5921509110    0.6806081054
C        0.6236088897   -0.6021937050    2.0375823751
C        4.8269783572   -3.1942879159    0.1848568299
C       -1.5038261473    0.6071369485    1.9458802927
C       -0.4305322582    0.1145655875    4.1288008134
N        4.3908818664   -4.0399919479    1.1986286572
N        4.0809861947   -2.0475353743   -0.0201157482
N       -0.5201777207   -0.1564233136    2.7006847127
O        5.8373006754   -3.4251967817   -0.4780370119
H        1.8509811291   -1.1102817421   -1.1186351556
H        3.7358742647   -1.8904067895    2.6575761498
H       -0.1093402186   -0.2200150746    0.0247944031
H        1.7598038685   -1.0820802064    3.8296761533
H       -2.3260207820    0.8839735147    2.6077831077
H       -1.9283658728    0.0037638243    1.1370339414
H       -1.0868724016    1.5279053677    1.5073325270
H       -1.4018403829    0.4574528257    4.4890456763
H        0.3207509387    0.8824603437    4.3730389757
H       -0.1825298746   -0.7962530023    4.6832809249
H        4.8109539886   -4.9587209613    1.1247374290
H        3.3994958296   -4.0424653477    1.4122873741
H        4.4111208757   -1.5076387300   -0.8102385736
26   
Generated by ForceBalance from scan.xyz: Frame 4 of 24
C        1.9010167037   -1.1116812724   -0.0101999343
C        2.9582138857   -1.4706829662    2.1181894839
C        0.7583140489   -0.6353940001    0.6300460633
C        1.8083188371   -1.0277816243    2.7682869369
C        3.0185546055   -1.5366037728    0.7194957197
C        0.6703229577   -0.6024614051    2.0419221293
C        4.7935917600   -3.2288904348    0.1426939751
C       -1.5048016004    0.5165651034    1.9119126751
C       -0.4228546407    0.1160580836    4.1133679112
N        4.2755724888   -4.0854059445    1.1050997023
N        4.1937918930   -1.9829528881    0.0530419137
N       -0.4889137477   -0.1791761095    2.6889815612
O        5.7574272706   -3.5278900080   -0.5608144502
H        1.9272773716   -1.1497778571   -1.0968381857
H        3.8259108737   -1.7650397945    2.7013219529
H       -0.0717923429   -0.3036857002    0.0182335079
H        1.8138069423   -0.9960954634    3.8511121663
H       -2.3356519833    0.7835287403    2.5668657133
H       -1.9066659539   -0.1310127209    1.1257695781
H       -1.1261429813    1.4373051587    1.4403622936
H       -1.4076661719    0.4348230952    4.4584941502
H        0.3017877222    0.9104554421    4.3524456771
H       -0.1524975981   -0.7778256780    4.6849709469
H        4.5787084270   -5.0413829967    0.9665504637
H        3.3015783833   -3.9747167108    1.3631719537
H        4.5337088712   -1.4498539404   -0.7376893277
26   
Generated by ForceBalance from scan.xyz: Frame 5 of 24
C        1.9516108139   -1.1378552876    0.0370161852
C        3.0176568620   -1.3837613524    2.1781256373
C        0.7897950479   -0.6843947055    0.6592143842
C        1.8525028252   -0.9592950660    2.8128903031
C        3.0835686620   -1.4896668419    0.7830143591
C        0.7012525755   -0.6023835896    2.0696995137
C        4.7334770306   -3.2470456351    0.0964195367
C       -1.5142421075    0.4303189310    1.9001021218
C       -0.4197499646    0.1493873444    4.1137829183
N        4.1116342586   -4.1299878897    0.9678919909
N        4.2789826112   -1.9369531402    0.1455661415
N       -0.4728088649   -0.1988668121    2.7004596326
O        5.6672643364   -3.5786675416   -0.6321507219
H        1.9828275155   -1.2143987562   -1.0474119267
H        3.8942819338   -1.6362610578    2.7680350592
H       -0.0527630004   -0.4082141653    0.0369519113
H        1.8526949747   -0.8925352176    3.8940922821
H       -2.3546031823    0.6887652577    2.5461948002
H       -1.8913562124   -0.2593006671    1.1379629222
H       -1.1699823165    1.3472230670    1.3961936040
H       -1.4161577112    0.4436629705    4.4470033415
H        0.2747220808    0.9780351445    4.3236640258
H       -0.1174716688   -0.7127902957    4.7169959029
H        4.3043246808   -5.0973719183    0.7411700053
H        3.1593299170   -3.9299343664    1.2506158524
H        4.6676066757   -1.3721069804   -0.5998256591
26   
Generated by ForceBalance from scan.xyz: Frame 6 of 24
C        1.9752896061   -1.2023522694    0.0879486036
C        3.0510217999   -1.3124922385    2.2348639318
C        0.8001156875   -0.7573256468    0.6902829691
C        1.8779718444   -0.8845513866    2.8526695648
C        3.1193917753   -1.4810356687    0.8469473440
C        0.7147973582   -0.6011580898    2.0956241490
C        4.6475343783   -3.2761112904    0.0235223992
C       -1.5398899726    0.3345386455    1.8806364040
C       -0.4297959401    0.2048552648    4.1068697076
N        3.9071464648   -4.1882845098    0.7603030929
N        4.3268160368   -1.9421844253    0.2347473835
N       -0.4662241408   -0.1975496112    2.7078118326
O        5.5712949336   -3.6115712859   -0.7160069087
H        2.0094421499   -1.3307003883   -0.9914366738
H        3.9343965720   -1.5208011612    2.8320706886
H       -0.0532978925   -0.5407188055    0.0592187058
H        1.8768644092   -0.7650006131    3.9293034815
H       -2.3813581809    0.6082423992    2.5187047324
H       -1.9000388216   -0.4200325292    1.1733333298
H       -1.2353482757    1.2252493242    1.3093359464
H       -1.4331888073    0.4944332279    4.4222828009
H        0.2480670596    1.0534246475    4.2879988560
H       -0.1155184607   -0.6274808831    4.7453615575
H        4.0038621025   -5.1377608871    0.4247223286
H        2.9796287052   -3.9202206981    1.0665197726
H        4.8018490379   -1.3298285374   -0.4177490246
26   
Generated by ForceBalance from scan.xyz: Frame 7 of 24
C        1.9014292818   -1.3350702367    0.3555777916
C        2.9522331167   -1.0996900793    2.5044586473
C        0.6945168243   -0.8905128512    0.8907144994
C        1.7579733024   -0.6256099831    3.0446364804
C        3.0447142218   -1.4622693430    1.1548971736
C        0.5868063174   -0.5287793288    2.2555031101
C        4.5769157923   -3.2235821809    0.2418930192
C       -1.7048042645    0.2563748316    1.8952475366
C       -0.6135040802    0.5267564756    4.1124079418
N        3.4970126200   -4.0930268818    0.1810097290
N        4.2756368209   -1.9155066547    0.5940904335
N       -0.6227433360   -0.1054597214    2.8005092864
O        5.7217251748   -3.5643092127   -0.0513097904
H        1.9650150843   -1.5876469533   -0.6991109909
H        3.8299797157   -1.1854730101    3.1408833730
H       -0.1603567233   -0.8095188665    0.2303377674
H        1.7429330337   -0.3434295970    4.0903457166
H       -2.5728553143    0.5634586842    2.4806243829
H       -2.0098498490   -0.6026154009    1.2888818848
H       -1.4358914835    1.0804295764    1.2157815434
H       -1.6341041588    0.7998489929    4.3849091726
H        0.0083010885    1.4353557183    4.1441942548
H       -0.2480678110   -0.1661698014    4.8772331538
H        3.7828837300   -5.0634834550    0.1513517341
H        2.6911466042   -3.8937413795    0.7621856084
H        5.1098745610   -1.3655590765    0.7593180670
26   
Generated by ForceBalance from scan.xyz: Frame 8 of 24
C        1.9146024024   -1.4342699847    0.4485081151
C        2.9511409641   -1.0757240128    2.5869972680
C        0.7024764296   -0.9695854420    0.9544256904
C        1.7517380733   -0.5776911536    3.0927777706
C        3.0546113239   -1.5128205317    1.2602667126
C        0.5836293345   -0.5332529118    2.2955862411
C        4.5765113211   -3.2140788658    0.1889870035
C       -1.7112042582    0.2179305459    1.8817592647
C       -0.6316946772    0.6173718084    4.0841778993
N        3.4876850605   -4.0529872280   -0.0090507524
N        4.2970830735   -1.9771110174    0.7465801786
N       -0.6325427839   -0.0884842788    2.8107444057
O        5.7188042024   -3.5201567424   -0.1499384770
H        1.9819286872   -1.7353491865   -0.5927737035
H        3.8245100734   -1.1219294888    3.2335474199
H       -0.1482150004   -0.9292222388    0.2849086375
H        1.7305657227   -0.2379414852    4.1211523695
H       -2.5835297193    0.5534378445    2.4448638554
H       -2.0098282374   -0.6748136702    1.3225912376
H       -1.4425828685    1.0040387224    1.1583872441
H       -1.6546505248    0.9008651621    4.3366965334
H       -0.0139401679    1.5293270705    4.0671589214
H       -0.2663939831   -0.0292415378    4.8887253754
H        3.7716429786   -5.0087769144   -0.1847882327
H        2.6898096967   -3.9468434130    0.6071686938
H        5.1369431340   -1.4566750002    0.9671686589
26   
Generated by ForceBalance from scan.xyz: Frame 9 of 24
C        1.8947910527   -1.5105264594    0.5265567801
C        2.9309460087   -1.0643603547    2.6476527793
C        0.6843915728   -1.0210636588    1.0143515407
C        1.7334257762   -0.5430255674    3.1327191245
C        3.0358212541   -1.5565700550    1.3399845606
C        0.5650871682   -0.5302150706    2.3354842395
C        4.5594340650   -3.1749839781    0.1233230224
C       -1.7240747741    0.2192407087    1.8893513036
C       -0.6450005153    0.7014923297    4.0715690085
N        3.4786359750   -4.0016509682   -0.1620503384
N        4.2846426038   -2.0425852674    0.8686997625
N       -0.6523973938   -0.0649564450    2.8335542787
O        5.6971416698   -3.4131942694   -0.2798754869
H        1.9565037167   -1.8493201801   -0.5027909700
H        3.8035575376   -1.0864163939    3.2964969770
H       -0.1655876591   -1.0066744260    0.3428036705
H        1.7143012877   -0.1617896975    4.1465040806
H       -2.5977898276    0.5758753092    2.4373033025
H       -2.0245293989   -0.6885382884    1.3562446511
H       -1.4474126881    0.9815863826    1.1436505113
H       -1.6672569814    0.9938384970    4.3171320342
H       -0.0296989743    1.6132552094    4.0074325126
H       -0.2730823571    0.0946497095    4.9034047454
H        3.7812893514   -4.9184387645   -0.4685289342
H        2.7071758994   -4.0076027330    0.4962489876
H        5.1200749716   -1.5135918125    1.0858470894
26   
Generated by ForceBalance from scan.xyz: Frame 10 of 24
C        1.9122689223   -1.6161844952    0.5872443807
C        2.9439159253   -1.0802961656    2.6891790236
C        0.7028727673   -1.1007973028    1.0528971638
C        1.7467409703   -0.5376356562    3.1491696499
C        3.0525437024   -1.6268843853    1.4028116132
C        0.5794837566   -0.5552510166    2.3507531444
C        4.6051437710   -3.1448515073    0.0784792510
C       -1.7036764084    0.1853282843    1.8661775844
C       -0.6302843093    0.7565524663    4.0273340023
N        3.5496895128   -3.9670730613   -0.3007563985
N        4.3091051600   -2.1373673823    0.9801501697
N       -0.6395449439   -0.0680938243    2.8273400526
O        5.7454260019   -3.2921769453   -0.3589886814
H        1.9705291245   -1.9918857081   -0.4286962786
H        3.8143434984   -1.0767533308    3.3415043434
H       -0.1447653591   -1.1125334802    0.3782760770
H        1.7275148850   -0.1147051262    4.1462735076
H       -2.5799870539    0.5641051162    2.3949692272
H       -2.0035785618   -0.7402947095    1.3644720358
H       -1.4197164688    0.9192550100    1.0948774579
H       -1.6523201669    1.0601223084    4.2602531375
H       -0.0150267218    1.6644328961    3.9195339745
H       -0.2575056246    0.1898763913    4.8865778640
H        3.8828080218   -4.8249481908   -0.7247021652
H        2.7964915841   -4.0927438197    0.3670143544
H        5.1330029985   -1.5964512414    1.2137906313
26   
Generated by ForceBalance from scan.xyz: Frame 11 of 24
C        1.8849575417   -1.7143767484    0.6632916348
C        2.9277007408   -1.0859710491    2.7310158842
C        0.6814769452   -1.1659303712    1.1095302949
C        1.7362532325   -0.5174602698    3.1719847140
C        3.0310127920   -1.6919782946    1.4700632153
C        0.5651046099   -0.5625814304    2.3806662978
C        4.6217972834   -3.1111669200    0.0695332016
C       -1.7122951565    0.1713554291    1.8693432218
C       -0.6283145062    0.8363948191    3.9980082830
N        3.5957048608   -3.9031077595   -0.4345906647
N        4.2871234702   -2.2384040095    1.0928047033
N       -0.6495668048   -0.0463257527    2.8403765026
O        5.7747754442   -3.1797198847   -0.3526038486
H        1.9320509820   -2.1265896185   -0.3381044782
H        3.8001274917   -1.0555976440    3.3803139253
H       -0.1681164108   -1.2024036578    0.4381237467
H        1.7253635530   -0.0501510621    4.1492368195
H       -2.5845639269    0.5827100905    2.3802534075
H       -2.0211554405   -0.7742340161    1.4120599762
H       -1.4227866427    0.8653268730    1.0636616030
H       -1.6468172447    1.1596199460    4.2198694657
H       -0.0061364900    1.7329128238    3.8434532606
H       -0.2564009306    0.3097767232    4.8828011966
H        3.9615413889   -4.6837379645   -0.9675791573
H        2.8492058949   -4.1497647688    0.2066715061
H        5.1039841172   -1.7229983646    1.3996293597
26   
Generated by ForceBalance from scan.xyz: Frame 12 of 24
C        2.4765198427   -0.5373557057    0.7765906636
C        2.4739329503   -1.8598254972    2.7785006721
C        1.2918244846    0.0755432976    1.1904000184
C        1.2864857396   -1.2606799999    3.1871544300
C        3.0932397685   -1.5171042195    1.5664603996
C        0.6680577256   -0.2523819106    2.4126698274
C        5.1586183615   -2.0372002511    0.1533386456
C       -1.2510851900    1.1652349056    1.8673652481
C       -1.2569839843   -0.2141609853    3.9247739698
N        5.1960431296   -0.7840351521   -0.4491353909
N        4.3127357058   -2.1739018047    1.2461112120
N       -0.4946384851    0.3948963254    2.8441253301
O        5.8518657643   -2.9759684884   -0.2326859956
H        2.8827342480   -0.2785760504   -0.1936722096
H        2.9290301657   -2.6153972186    3.4158649993
H        0.8524074558    0.8134253093    0.5298541243
H        0.8517551975   -1.5814717011    4.1261213944
H       -2.1277449230    1.5966846138    2.3537660930
H       -1.5916594485    0.5594313032    1.0118483589
H       -0.6533271789    1.9971575916    1.4812308609
H       -2.1343933441    0.4004535306    4.1336234733
H       -0.6647097497   -0.2544203957    4.8445399691
H       -1.5973899274   -1.2356559974    3.6887870104
H        6.0049792980   -0.6932969285   -1.0536090392
H        5.0442960737    0.0142829264    0.1583540053
H        4.3929709513   -3.1139498513    1.6176089338
26   
Generated by ForceBalance from scan.xyz: Frame 13 of 24
C        2.4187372915   -0.6256756698    0.6973787088
C        2.4757104717   -1.8823676648    2.7431992797
C        1.2574202642    0.0149657764    1.1322467470
C        1.3054643975   -1.2616213899    3.1701531107
C        3.0544483268   -1.5821947897    1.5009890442
C        0.6715067902   -0.2714468879    2.3844501674
C        5.1712313906   -2.0102599930    0.1411087354
C       -1.2514392095    1.1494843173    1.8592473396
C       -1.1989191965   -0.1639485122    3.9605641101
N        5.2212236361   -0.7050578450   -0.3366692338
N        4.2431205453   -2.2697602550    1.1370867638
N       -0.4707532556    0.3984557075    2.8320943746
O        5.9142433711   -2.8952819502   -0.2795872759
H        2.8024683420   -0.4008658229   -0.2911528256
H        2.9493316180   -2.6196528071    3.3880622461
H        0.8023855287    0.7373834793    0.4652325055
H        0.8986442168   -1.5478028674    4.1324834090
H       -2.1080652272    1.6024101502    2.3614127007
H       -1.6248203834    0.5237197299    1.0324633485
H       -0.6591930160    1.9646776122    1.4311501370
H       -2.0640609635    0.4651318930    4.1770342121
H       -0.5748922094   -0.1758080355    4.8599449836
H       -1.5546434062   -1.1903220918    3.7740592378
H        6.0803861844   -0.5330606776   -0.8461965477
H        4.9684443876    0.0313071750    0.3138997317
H        4.2997813311   -3.2385146139    1.4291845619
26   
Generated by ForceBalance from scan.xyz: Frame 14 of 24
C        2.3503530178   -0.6868399160    0.6375443691
C        2.4637484627   -1.8777842564    2.7203632549
C        1.2069329578   -0.0238662214    1.0828217739
C        1.3058294238   -1.2403628628    3.1587388052
C        3.0073601306   -1.6175216778    1.4545798667
C        0.6548759636   -0.2716690893    2.3599108911
C        5.1881421359   -1.9510328627    0.1883351579
C       -1.2755632512    1.1440011704    1.8451917158
C       -1.1675423184   -0.1022491410    3.9864198412
N        5.2386033804   -0.6077098567   -0.1680444268
N        4.1730828633   -2.3227601521    1.0525245968
N       -0.4718229870    0.4156651468    2.8168200191
O        5.9944486757   -2.7764968534   -0.2380084791
H        2.7179824082   -0.4920719343   -0.3642412552
H        2.9548968190   -2.5956902014    3.3735047932
H        0.7365701342    0.6810479891    0.4078536370
H        0.9236144760   -1.4940662977    4.1400633033
H       -2.1150778385    1.6162647766    2.3581914574
H       -1.6755932020    0.4971472921    1.0478665003
H       -0.6913325917    1.9429413812    1.3773947392
H       -2.0231567826    0.5385168047    4.2061673427
H       -0.5163908137   -0.0852643162    4.8662596527
H       -1.5327673560   -1.1326124294    3.8472669069
H        6.1392605653   -0.3632241453   -0.5626669878
H        4.8760463739    0.0636113300    0.5004765986
H        4.2178024897   -3.3100282869    1.2744510005
26   
Generated by ForceBalance from scan.xyz: Frame 15 of 24
C        2.2543314275   -0.7506997475    0.5580852833
C        2.4553514609   -1.8953946955    2.6603920170
C        1.1356871542   -0.0694717483    1.0346192474
C        1.3184823581   -1.2432722726    3.1331460803
C        2.9445021370   -1.6635806565    1.3680750379
C        0.6385648234   -0.2892984571    2.3404182964
C        5.1763562476   -1.9181621284    0.1959498721
C       -1.3034927899    1.1295081290    1.8785760057
C       -1.1091691845   -0.0713983918    4.0417686121
N        5.2144147315   -0.5516499671   -0.0585150168
N        4.0827623403   -2.3777723241    0.9071335811
N       -0.4650158234    0.4113994986    2.8283876696
O        6.0465747428   -2.6891611586   -0.2064469763
H        2.5885124023   -0.5793232625   -0.4602793241
H        2.9718202805   -2.6014915795    3.3066287957
H        0.6393954090    0.6234669062    0.3658970342
H        0.9759748680   -1.4732504060    4.1347559173
H       -2.1185982150    1.6151987760    2.4175735307
H       -1.7394574786    0.4723135182    1.1092773589
H       -0.7342999120    1.9169823230    1.3741769197
H       -1.9525004874    0.5782709199    4.2815619893
H       -0.4192771661   -0.0330699271    4.8909303925
H       -1.4828204080   -1.1035963898    3.9469790041
H        6.1403237349   -0.2508772593   -0.3383696435
H        4.7524096977    0.0606561252    0.6049974171
H        4.1404072578   -3.3694728613    1.1023680112
26   
Generated by ForceBalance from scan.xyz: Frame 16 of 24
C        2.2063676974   -0.8090185825    0.4782196838
C        2.4766549045   -1.9034469861    2.6006484894
C        1.1059536987   -0.1126638206    0.9735218256
C        1.3568026471   -1.2370408642    3.0948762749
C        2.9218095509   -1.7019190857    1.2879521684
C        0.6522791703   -0.3016147289    2.3007978884
C        5.2170274265   -1.9102105561    0.2647521480
C       -1.2957311286    1.1208282292    1.8719445607
C       -1.0345652660   -0.0339029945    4.0565552992
N        5.2591017977   -0.5326555291    0.0948395412
N        4.0397746784   -2.4230564447    0.7846865743
N       -0.4345773559    0.4095302814    2.8062500631
O        6.1443927514   -2.6471002920   -0.0674486200
H        2.5135324029   -0.6642614680   -0.5533531974
H        3.0127843431   -2.5962257444    3.2452912493
H        0.5883120694    0.5655287346    0.3059419151
H        1.0456879051   -1.4417116685    4.1121044535
H       -2.0924343864    1.6179787492    2.4275756322
H       -1.7573488736    0.4563076549    1.1244504404
H       -0.7369036269    1.8982445094    1.3407979162
H       -1.8705240379    0.6220370117    4.3045657686
H       -0.3154922317    0.0320212041    4.8795900870
H       -1.4091731675   -1.0687440306    4.0077885112
H        6.2026264472   -0.1965969550   -0.0529624790
H        4.6892921693    0.0381288803    0.7089038875
H        4.1085495853   -3.4124696197    0.9877067009
26   
Generated by ForceBalance from scan.xyz: Frame 17 of 24
C        2.1203711590   -0.8550807627    0.3820085159
C        2.4987841288   -1.8887167463    2.5186221808
C        1.0387552525   -0.1517714350    0.9074734133
C        1.4006052468   -1.2130734377    3.0480982028
C        2.8773453264   -1.7218705085    1.1806388882
C        0.6514724030   -0.3061201102    2.2607169852
C        5.2234932075   -1.9060069221    0.3171545037
C       -1.3228680130    1.0924713165    1.8838159746
C       -0.9511457349    0.0046630971    4.0879418824
N        5.2917478592   -0.5202835455    0.2867940317
N        3.9807407877   -2.4388534577    0.6296008772
N       -0.4147296412    0.4117768600    2.7966440506
O        6.1795335492   -2.6250450943    0.0314427872
H        2.3862164279   -0.7355996024   -0.6645405930
H        3.0698037998   -2.5615614124    3.1542731440
H        0.4856342474    0.5059238196    0.2479606474
H        1.1396468481   -1.3890222661    4.0845747186
H       -2.0952297163    1.6020067850    2.4620137623
H       -1.8151148562    0.4043581107    1.1786513100
H       -0.7939516327    1.8564953652    1.3049457088
H       -1.7783714565    0.6639280865    4.3554012894
H       -0.1938976761    0.0998260501    4.8728875100
H       -1.3209592240   -1.0328584321    4.0888397212
H        6.2448857868   -0.1798127359    0.2864786263
H        4.6427696209    0.0017645936    0.8640297014
H        4.0235503974   -3.4401354325    0.7755101424
26   
Generated by ForceBalance from scan.xyz: Frame 18 of 24
C        2.0846396463   -0.9992704143    0.1089782616
C        2.7528299572   -1.8461245966    2.2572887120
C        1.0190723023   -0.3215737561    0.6982010446
C        1.7018044712   -1.1604448430    2.8623404068
C        2.9638353224   -1.7754468275    0.8753346737
C        0.8076527079   -0.3713208868    2.0980172567
C        5.3341643645   -1.9413174799    0.1070106174
C       -1.2689976569    0.9072079146    1.8560605457
C       -0.5668867986    0.0422886508    4.0840814674
N        5.6188120225   -0.8213731774    0.8734997260
N        4.0617045777   -2.4696768379    0.2768501873
N       -0.2281769260    0.3351547504    2.6984002027
O        6.1663606826   -2.4770374201   -0.6232107475
H        2.2352705196   -0.9307544919   -0.9658853358
H        3.4256362261   -2.4499460289    2.8598980168
H        0.3578958092    0.2536278685    0.0614429267
H        1.5776532869   -1.2506266158    3.9346635842
H       -2.0006986959    1.4149116899    2.4861136417
H       -1.7961576246    0.1486244194    1.2567683764
H       -0.8529476979    1.6554882067    1.1731727828
H       -1.3986843925    0.6778185435    4.3912533539
H        0.2750307656    0.2647092476    4.7481032183
H       -0.8591081384   -1.0081250483    4.2377633161
H        6.4518416991   -0.3351896708    0.5683682243
H        4.8496493053   -0.2349774961    1.1741545279
H        3.8615560724   -3.2001209228   -0.3960835922
26   
Generated by ForceBalance from scan.xyz: Frame 19 of 24
C        2.0154770855   -1.0187283055    0.0551162399
C        2.7901076986   -1.7784849967    2.1993228222
C        0.9509800972   -0.3577374953    0.6655927874
C        1.7468959821   -1.0979619248    2.8234436377
C        2.9484242223   -1.7426543903    0.8081614322
C        0.7984471924   -0.3615194704    2.0729988159
C        5.3556357054   -2.0298072039    0.1734854300
C       -1.3349257449    0.8268338871    1.8758797325
C       -0.5169168473    0.0638174550    4.0954770613
N        5.6837615723   -1.0290509612    1.0770144956
N        4.0281594391   -2.4342729122    0.1823673432
N       -0.2331344520    0.3385557604    2.6935513380
O        6.1903312312   -2.5745314983   -0.5471085013
H        2.1210094735   -0.9772024369   -1.0265101761
H        3.4954152199   -2.3510061122    2.7950924190
H        0.2471201926    0.1736401614    0.0366653143
H        1.6678135539   -1.1591158573    3.9020587878
H       -2.0538500911    1.3415362399    2.5151516740
H       -1.8613506276    0.0194421376    1.3428352900
H       -0.9808908905    1.5524389606    1.1364001514
H       -1.3490435364    0.6899342203    4.4210615715
H        0.3434047839    0.3149883229    4.7242683030
H       -0.7829049835   -0.9890682257    4.2789864531
H        6.5850628609   -0.6119654240    0.8819986209
H        4.9557768004   -0.3825698086    1.3579003401
H        3.8178072688   -3.0614791788   -0.5845192408
26   
Generated by ForceBalance from scan.xyz: Frame 20 of 24
C        1.9605064857   -0.9792108382    0.0087866930
C        2.8306643372   -1.6690446366    2.1404916380
C        0.8885413071   -0.3519753293    0.6412107878
C        1.7813754409   -1.0166245253    2.7841983050
C        2.9479134342   -1.6473148933    0.7440014674
C        0.7816737209   -0.3324612977    2.0520328232
C        5.3733475294   -2.0699817185    0.2059516296
C       -1.4021690124    0.7668581460    1.9021100151
C       -0.4855296396    0.0798429349    4.1078353498
N        5.7398434121   -1.1686637397    1.1965808586
N        4.0154399873   -2.3174290060    0.0837751274
N       -0.2571903251    0.3391740561    2.6932927080
O        6.1972787220   -2.6580613945   -0.4930691472
H        2.0291212477   -0.9534799982   -1.0763613430
H        3.5683805524   -2.2090709081    2.7267751497
H        0.1434309811    0.1363288225    0.0249180083
H        1.7367410119   -1.0641176636    3.8655519302
H       -2.1208285320    1.2662444865    2.5537984704
H       -1.9128537476   -0.0710933160    1.4015580406
H       -1.1002828316    1.4902815127    1.1376615824
H       -1.3304053774    0.6798716603    4.4495031684
H        0.3841195511    0.3750908760    4.7039712217
H       -0.7048041205   -0.9788237082    4.3187524853
H        6.6935649161   -0.8477676266    1.0852868074
H        5.0711531241   -0.4528638186    1.4572923963
H        3.8014359824   -2.8893726042   -0.7237208012
26   
Generated by ForceBalance from scan.xyz: Frame 21 of 24
C        1.9316944437   -0.9332830531   -0.0272422066
C        2.8765479202   -1.5723046885    2.0864549192
C        0.8541377746   -0.3371887586    0.6247838531
C        1.8201057732   -0.9496947792    2.7484761111
C        2.9627267389   -1.5570276079    0.6871532258
C        0.7808383621   -0.3052860161    2.0370621677
C        5.3816892164   -2.1360645750    0.2214641941
C       -1.4459976159    0.7082266733    1.9319488932
C       -0.4572799065    0.0711504565    4.1164749581
N        5.7890071463   -1.2890108558    1.2457089369
N        4.0199432094   -2.2002944123   -0.0118508395
N       -0.2633022983    0.3418497443    2.6985868593
O        6.1749976133   -2.8162803274   -0.4279224313
H        1.9724032048   -0.9165544716   -1.1139030485
H        3.6408877817   -2.0836022424    2.6633967687
H        0.0781259777    0.1177121322    0.0212386353
H        1.8029995022   -0.9910276834    3.8308800151
H       -2.1631073242    1.1973347295    2.5932504785
H       -1.9400107196   -0.1592017839    1.4655940510
H       -1.1927361284    1.4238308729    1.1432341654
H       -1.3086850799    0.6505257000    4.4774009882
H        0.4168067033    0.3849715155    4.6959450248
H       -0.6473943692   -0.9932849620    4.3276006529
H        6.7797736756   -1.0857839586    1.1923522687
H        5.2010058467   -0.4900861023    1.4561046426
H        3.7898039310   -2.8007776585   -0.7936898489
26   
Generated by ForceBalance from scan.xyz: Frame 22 of 24
C        1.9149437162   -0.8962207290   -0.0497370605
C        2.9217139233   -1.4573192837    2.0576443642
C        0.8257709029   -0.3326273005    0.6104599631
C        1.8484569019   -0.8678493063    2.7246897002
C        2.9859303725   -1.4604205308    0.6568574774
C        0.7732635055   -0.2769836298    2.0226111164
C        5.3832126799   -2.1975522542    0.2434270187
C       -1.4952047744    0.6413835852    1.9375996781
C       -0.4482165492    0.0821256086    4.1145572789
N        5.8390988559   -1.4464394205    1.3213982874
N        4.0413892874   -2.0730844949   -0.0695968881
N       -0.2857853568    0.3411506274    2.6908196204
O        6.1205914918   -2.9436680588   -0.3992640730
H        1.9339324709   -0.8987811043   -1.1373363819
H        3.7064642845   -1.9344380783    2.6351249318
H        0.0216643370    0.0771570441    0.0113602290
H        1.8495956168   -0.8949504872    3.8077262300
H       -2.2215482668    1.1135578558    2.6012548045
H       -1.9600956062   -0.2552812661    1.4968572407
H       -1.2853749336    1.3506509486    1.1305757065
H       -1.3152971200    0.6340937752    4.4813239784
H        0.4220731151    0.4361819000    4.6763329897
H       -0.5949157115   -0.9858644558    4.3427174406
H        6.8496908745   -1.3741667754    1.3218376790
H        5.3545278733   -0.5779412215    1.5210187482
H        3.7917486777   -2.6293983689   -0.8781136785
26   
Generated by ForceBalance from scan.xyz: Frame 23 of 24
C        1.8786161015   -0.8236594284   -0.0744624536
C        2.9600660475   -1.3129934908    2.0111630811
C        0.7812766635   -0.3005378484    0.6037817493
C        1.8728733404   -0.7676939494    2.6952768466
C        2.9946044619   -1.3273860469    0.6095888583
C        0.7574440449   -0.2307720259    2.0157181574
C        5.3517053067   -2.2059590404    0.1981376327
C       -1.5545808416    0.5717135014    1.9743512218
C       -0.4345120714    0.0894556997    4.1302508642
N        5.8609278093   -1.5677442253    1.3243206727
N        4.0493345626   -1.8933814574   -0.1550470565
N       -0.3131873060    0.3497055303    2.7025280214
O        6.0145969471   -3.0026476348   -0.4639112458
H        1.8687351127   -0.8403355049   -1.1622565228
H        3.7697695015   -1.7553609249    2.5803119844
H       -0.0541471951    0.0632762498    0.0179449318
H        1.8994161284   -0.7870865031    3.7781684454
H       -2.2875694212    1.0209625066    2.6466803530
H       -1.9839238221   -0.3565034122    1.5633830554
H       -1.4010174280    1.2734729755    1.1484595290
H       -1.3158850727    0.6064250361    4.5138347082
H        0.4319263221    0.4821727260    4.6717880260
H       -0.5312517548   -0.9829199562    4.3653685498
H        6.8718060862   -1.6328823262    1.3585713524
H        5.4956038527   -0.6446426382    1.5336741272
H        3.7766847072   -2.3910261653   -0.9943928258
26   
Generated by ForceBalance from scan.xyz: Frame 24 of 24
C        1.8836781081   -0.8018454189   -0.0745691622
C        3.0013266873   -1.1911443640    2.0123085588
C        0.7704432620   -0.3093372470    0.5996629266
C        1.8917549314   -0.6837134325    2.6912444649
C        3.0286365386   -1.2352193258    0.6114169532
C        0.7509682731   -0.2089552806    2.0096784909
C        5.3385822939   -2.2534793838    0.2151676810
C       -1.5939597809    0.4932858293    1.9679449310
C       -0.4395380305    0.1071063191    4.1251342571
N        5.8802283656   -1.7387580336    1.3886370464
N        4.1000998245   -1.7553926332   -0.1642873812
N       -0.3399480039    0.3400596338    2.6915145886
O        5.9237276940   -3.0887151147   -0.4712294356
H        1.8627777228   -0.8481067655   -1.1616464241
H        3.8258039641   -1.5909177169    2.5901696523
H       -0.0842260233    0.0015332057    0.0110926347
H        1.9250487003   -0.6816480282    3.7741816470
H       -2.3413902517    0.9251209212    2.6358676053
H       -1.9862905715   -0.4607343793    1.5793800814
H       -1.4756813288    1.1832314269    1.1263029991
H       -1.3404958144    0.5926889823    4.5043270856
H        0.4124319335    0.5501966566    4.6507743174
H       -0.4863650302   -0.9629562142    4.3852925772
H        6.8693429631   -1.9503319889    1.4581921824
H        5.6484595925   -0.7760629365    1.6098913583
H        3.8196801214   -2.1755003849   -1.0432241416
