21   
Generated by ForceBalance from scan.xyz: Frame 1 of 24
C        1.9049880553   -1.0227486484   -0.1755853208
C        2.6126118849   -1.9956834738    0.5371683400
C        1.1322939125   -0.0906293084    0.5238634967
C        2.5460254847   -2.0344408259    1.9304875074
C        1.0664211658   -0.1328931937    1.9172663217
C        0.7370672219   -0.4450328774    4.8654703270
C        2.6992710375   -1.7947811718    4.8998807282
C        0.7616144782   -0.4671656578    6.2603669235
C        2.6355577722   -1.7573668603    6.2933710315
C        1.7645631171   -1.1110221031    2.6500803364
C        1.7234066670   -1.1313393037    4.1354700099
N        1.6884953416   -1.1088673367    6.9864251471
H        1.9573204432   -0.9896868865   -1.2605602524
H        3.2151742728   -2.7289853368    0.0075159538
H        0.5867823510    0.6791011151   -0.0158279116
H        3.0858844887   -2.8159339916    2.4554394260
H        0.4844270570    0.6231602851    2.4340947489
H       -0.0701140051    0.0815853507    4.3673732205
H        3.5240994338   -2.3200359118    4.4303505117
H       -0.0081854104    0.0585365755    6.8236830632
H        3.3932393858   -2.2711008561    6.8835343842
21   
Generated by ForceBalance from scan.xyz: Frame 2 of 24
C        1.8965843171   -1.0300334259   -0.1658354198
C        2.4937523541   -2.0791573355    0.5409023082
C        1.2447378760   -0.0111155481    0.5365929394
C        2.4402809127   -2.1084374292    1.9355381315
C        1.1885483910   -0.0432248654    1.9311541540
C        0.6651854164   -0.5644385559    4.8534169926
C        2.7818460444   -1.6671519345    4.8976021344
C        0.6800797645   -0.5956224485    6.2487308345
C        2.7020024534   -1.6499345258    6.2910508549
C        1.7819421894   -1.0939996961    2.6533792205
C        1.7387744063   -1.1161442824    4.1351361945
N        1.6743304798   -1.1265680004    6.9758494654
H        1.9399802125   -1.0060315130   -1.2514949530
H        2.9965257449   -2.8798299977    0.0047077491
H        0.7878153862    0.8152265696   -0.0017091676
H        2.8854457563   -2.9438633886    2.4684656417
H        0.7055434231    0.7711530154    2.4635142119
H       -0.1921646690   -0.1413193479    4.3385796892
H        3.6641284153   -2.0815811037    4.4192768639
H       -0.1535290435   -0.1767255861    6.8108573632
H        3.5101982080   -2.0714897407    6.8872920490
21   
Generated by ForceBalance from scan.xyz: Frame 3 of 24
C        1.8761524280   -1.0432198394   -0.1618075308
C        2.3719280721   -2.1440545656    0.5449519040
C        1.3484066084    0.0470546570    0.5383095737
C        2.3432898966   -2.1525859307    1.9413248037
C        1.3151083838    0.0358678816    1.9344757081
C        0.6235926545   -0.6723621572    4.8373610798
C        2.8516051729   -1.5361447964    4.9023448780
C        0.6203472755   -0.7269359854    6.2328042261
C        2.7464456166   -1.5514409116    6.2947337205
C        1.8178019482   -1.0614491457    2.6540424063
C        1.7678183548   -1.0816073444    4.1352809509
N        1.6560905159   -1.1565690713    6.9684960482
H        1.8994894406   -1.0356624246   -1.2483570815
H        2.7730498897   -3.0000490212    0.0084460036
H        0.9672778651    0.9089299836   -0.0033085416
H        2.7093622207   -3.0200961775    2.4841150619
H        0.9203158829    0.8935904283    2.4728389615
H       -0.2618652652   -0.3354215085    4.3057111933
H        3.7748337995   -1.8521466309    4.4246940171
H       -0.2639825553   -0.4166844528    6.7877915485
H        3.5843045943   -1.8941060436    6.9004233328
21   
Generated by ForceBalance from scan.xyz: Frame 4 of 24
C        1.8615140163   -1.0474845192   -0.1636407005
C        2.2357677714   -2.1953373362    0.5431304979
C        1.4700424663    0.1001294696    0.5342123308
C        2.2238761640   -2.1943751707    1.9405001342
C        1.4524340169    0.0984814114    1.9314281830
C        0.5903713193   -0.8008542598    4.8196454298
C        2.9056846175   -1.3969014258    4.9053187045
C        0.5772789829   -0.8680892140    6.2151049224
C        2.7872480261   -1.4360415370    6.2968139893
C        1.8412250156   -1.0440677397    2.6489871626
C        1.7848578065   -1.0608624948    4.1325808358
N        1.6495640172   -1.1781934237    6.9584427912
H        1.8717515222   -1.0483141417   -1.2504411922
H        2.5287365154   -3.0942010027    0.0067100490
H        1.1795222030    0.9958409028   -0.0087746701
H        2.4999861808   -3.0916433844    2.4885095541
H        1.1532944023    0.9923289985    2.4730960728
H       -0.3186026442   -0.5605249004    4.2750345381
H        3.8602451898   -1.6087148602    4.4312735181
H       -0.3437562473   -0.6712352536    6.7622388824
H        3.6514836250   -1.6853250157    6.9110805607
21   
Generated by ForceBalance from scan.xyz: Frame 5 of 24
C        1.8649067712   -1.0437969916   -0.1619533614
C        2.0845663235   -2.2336006434    0.5401652810
C        1.6232362021    0.1410069218    0.5412249527
C        2.0669805335   -2.2380407136    1.9381019200
C        1.6014193033    0.1359537841    1.9391779061
C        0.5573406890   -0.9653839618    4.8192403818
C        2.9323336114   -1.2380070567    4.9121151629
C        0.5512454907   -1.0201890510    6.2158307680
C        2.8184302677   -1.2797150945    6.3046281027
C        1.8341885702   -1.0512535189    2.6496195397
C        1.7773978184   -1.0670533100    4.1374199055
N        1.6547278005   -1.1734394193    6.9622099388
H        1.8790429198   -1.0405959364   -1.2487534510
H        2.2641309865   -3.1596921175    0.0000856420
H        1.4508264037    1.0690339931    0.0021516231
H        2.2297227126   -3.1641457347    2.4835955742
H        1.4130739481    1.0567341310    2.4855385269
H       -0.3732232887   -0.8492341136    4.2704325979
H        3.9061124530   -1.3282710319    4.4384961016
H       -0.3885356813   -0.9432413281    6.7611213294
H        3.7072714170   -1.4042503132    6.9217952043
21   
Generated by ForceBalance from scan.xyz: Frame 6 of 24
C        1.8847121517   -1.0330224081   -0.1578012323
C        1.9163061142   -2.2522751621    0.5269346760
C        1.8102729925    0.1639420086    0.5621231049
C        1.8736539453   -2.2740554577    1.9245339857
C        1.7676147063    0.1424191258    1.9597019726
C        0.5371902744   -1.1641532255    4.8339047867
C        2.9259523453   -1.0600753704    4.9080045106
C        0.5489130002   -1.1837687797    6.2317491424
C        2.8295899439   -1.0844017112    6.3024646789
C        1.7989637286   -1.0771106788    2.6519325512
C        1.7536489262   -1.1006735600    4.1423037012
N        1.6679368575   -1.1451365250    6.9693980569
H        1.9178606298   -1.0157762334   -1.2440657577
H        1.9741261311   -3.1864950913   -0.0257849008
H        1.7853647581    1.1150771335    0.0364674233
H        1.8982054085   -3.2215575550    2.4568289178
H        1.7097697228    1.0727647439    2.5190098929
H       -0.4042036915   -1.1977692420    4.2923899191
H        3.8983579726   -1.0103164708    4.4257828411
H       -0.3879807705   -1.2329605867    6.7851862144
H        3.7311685212   -1.0535081675    6.9129400569
21   
Generated by ForceBalance from scan.xyz: Frame 7 of 24
C        1.8994035499   -1.0288847732   -0.1615516261
C        1.7478207930   -2.2475699372    0.5080414854
C        1.9933792784    0.1581404559    0.5726390743
C        1.6862755340   -2.2785483133    1.9045172783
C        1.9361067269    0.1268593059    1.9691441942
C        0.5497758392   -1.3547112443    4.8370564379
C        2.8937825377   -0.8780119283    4.8913327046
C        0.5712216949   -1.3452538353    6.2346739566
C        2.8083738515   -0.8910948507    6.2863404388
C        1.7706554949   -1.0907997046    2.6465224625
C        1.7403066066   -1.1248208326    4.1348102215
N        1.6738109709   -1.1196994946    6.9635354160
H        1.9467949116   -1.0045533841   -1.2471391436
H        1.6830036009   -3.1746963281   -0.0556964508
H        2.1121684763    1.1086115166    0.0587622430
H        1.5762466074   -3.2264915431    2.4251915416
H        2.0095055929    1.0492420642    2.5397303846
H       -0.3796778457   -1.5347214691    4.3037350453
H        3.8447525012   -0.6878142208    4.4012888676
H       -0.3454290023   -1.5217893040    6.7959269041
H        3.6969736432   -0.7089243825    6.8893620888
21   
Generated by ForceBalance from scan.xyz: Frame 8 of 24
C        1.8974237135   -1.0301958357   -0.1599261002
C        1.5915513746   -2.2216249710    0.5063974330
C        2.1477790562    0.1317444563    0.5780294723
C        1.5311557316   -2.2493131256    1.9022807805
C        2.0935274491    0.1023269142    1.9740250001
C        0.5947710662   -1.5107627740    4.8360530760
C        2.8529019846   -0.7232813144    4.8951260570
C        0.6113590718   -1.4986988984    6.2330482773
C        2.7673512091   -0.7479389993    6.2893740147
C        1.7715659757   -1.0854839470    2.6499870319
C        1.7454610551   -1.1241589168    4.1341111046
N        1.6723223484   -1.1272461566    6.9644605391
H        1.9433454078   -1.0079786886   -1.2455894488
H        1.4081383671   -3.1310507511   -0.0600085871
H        2.3843230273    1.0613147612    0.0666900818
H        1.3074997075   -3.1789837678    2.4194784621
H        2.2824521632    1.0073189160    2.5458567143
H       -0.3039905326   -1.8073957407    4.3022423746
H        3.7738334803   -0.4132166236    4.4089631883
H       -0.2755174709   -1.7942802158    6.7920534607
H        3.6229473108   -0.4498148754    6.8939418089
21   
Generated by ForceBalance from scan.xyz: Frame 9 of 24
C        1.8902877194   -1.0348158366   -0.1601048086
C        1.4542733462   -2.1824527494    0.5107505012
C        2.2787225607    0.0901164301    0.5753880959
C        1.4036992177   -2.2035918677    1.9063336784
C        2.2331424978    0.0670178752    1.9710958889
C        0.6552510972   -1.6380309432    4.8323756080
C        2.8005038094   -0.5854163070    4.9083127668
C        0.6627532554   -1.6301826133    6.2287998115
C        2.7095580267   -0.6256179260    6.3012564673
C        1.7886400092   -1.0777596085    2.6540369241
C        1.7520471762   -1.1078299593    4.1354677821
N        1.6653489279   -1.1363416456    6.9701566374
H        1.9282840356   -1.0176882187   -1.2461341571
H        1.1616229127   -3.0645337472   -0.0529268653
H        2.6123550118    0.9879621082    0.0615694794
H        1.0848545703   -3.1054712768    2.4223770450
H        2.5187492944    0.9504655573    2.5360945629
H       -0.2031347675   -2.0336134048    4.2966229805
H        3.6875013273   -0.1746414172    4.4342150490
H       -0.1849811442   -2.0345906624    6.7802400128
H        3.5210691070   -0.2312687379    6.9113629137
21   
Generated by ForceBalance from scan.xyz: Frame 10 of 24
C        1.8866428170   -1.0378365059   -0.1669812097
C        1.3336742201   -2.1320326590    0.5065329447
C        2.3965988806    0.0374361876    0.5681390537
C        1.2908718549   -2.1498515726    1.9018172109
C        2.3564079087    0.0162686949    1.9634267913
C        0.7240241149   -1.7497744404    4.8322790068
C        2.7342198498   -0.4662712376    4.9180027491
C        0.7237941081   -1.7440470254    6.2281739485
C        2.6434174529   -0.5172234472    6.3099561266
C        1.8073149513   -1.0792884802    2.6533550001
C        1.7501549504   -1.0915575125    4.1347484824
N        1.6604962320   -1.1416287006    6.9753799795
H        1.9184483708   -1.0226011032   -1.2531905101
H        0.9411584875   -2.9757709096   -0.0551102602
H        2.8173001150    0.8979379348    0.0543764029
H        0.8829080062   -3.0183523329    2.4109706612
H        2.7283035504    0.8718011949    2.5200696545
H       -0.0880389923   -2.2371636292    4.3012239999
H        3.5807378355    0.0332326913    4.4564171146
H       -0.0744731430   -2.2454812756    6.7737687390
H        3.4059612189   -0.0375930463    6.9221632522
21   
Generated by ForceBalance from scan.xyz: Frame 11 of 24
C        1.8886573039   -1.0372252377   -0.1757993305
C        1.2130130428   -2.0605882235    0.4961776652
C        2.5198837758   -0.0333576670    0.5651655710
C        1.1712848063   -2.0799262297    1.8909485344
C        2.4776840426   -0.0563960651    1.9598370873
C        0.8101479256   -1.8657999002    4.8434823982
C        2.6455834485   -0.3501886954    4.9251543964
C        0.8074339884   -1.8535444731    6.2388436068
C        2.5602669396   -0.4049253355    6.3167988033
C        1.8129940894   -1.0856354874    2.6529001249
C        1.7441434150   -1.0876296539    4.1373375814
N        1.6606558582   -1.1393881123    6.9870574342
H        1.9200783048   -1.0205369425   -1.2619520990
H        0.7195492671   -2.8487529512   -0.0665228354
H        3.0375416720    0.7758697393    0.0567016119
H        0.6602525765   -2.8999544243    2.3848360168
H        2.9486257541    0.7530167808    2.5082478509
H        0.0617241737   -2.4572097347    4.3269205440
H        3.4300085828    0.2486565363    4.4746154904
H        0.0768052102   -2.4499044727    6.7836601949
H        3.2595054780    0.1673915441    6.9249113318
21   
Generated by ForceBalance from scan.xyz: Frame 12 of 24
C        1.8856945847   -1.0379314456   -0.1855037964
C        2.7255318589   -0.2065167324    0.5611787251
C        1.0029661176   -1.8891775748    0.4854939572
C        2.6821508863   -0.2271507566    1.9556489318
C        0.9624370809   -1.9070196293    1.8800895896
C        2.5821429950   -0.2781965829    4.9273367752
C        0.8820365311   -1.9392788519    4.8522422620
C        2.5020254755   -0.3347061035    6.3190278714
C        0.8774528634   -1.9219570260    6.2472682581
C        1.8001394911   -1.0773404315    2.6499946997
C        1.7549168660   -1.0981535556    4.1385155400
N        1.6681273929   -1.1383628689    6.9942617610
H        1.9185624508   -1.0227575756   -1.2716174111
H        3.4184833724    0.4620745306    0.0570964838
H        0.3422166809   -2.5429277990   -0.0778226376
H        3.3497923454    0.4328813172    2.4980600771
H        0.2639227160   -2.5813506425    2.3627602393
H        3.2932053638    0.4092758531    4.4838322403
H        0.1997552262   -2.6133341003    4.3471730315
H        3.1458853234    0.3033275955    6.9228860021
H        0.1986482038   -2.5761646179    6.7927236898
21   
Generated by ForceBalance from scan.xyz: Frame 13 of 24
C        1.8872399562   -1.0382345635   -0.1768849001
C        2.8439798911   -0.3445954639    0.5706621696
C        0.8860717227   -1.7520334229    0.4889776617
C        2.8001906531   -0.3668729318    1.9653190912
C        0.8456502306   -1.7738923489    1.8837355238
C        2.4398022245   -0.1528286354    4.9168758879
C        1.0198182619   -2.0639127463    4.8499254616
C        2.3680616562   -0.2139844306    6.3090882551
C        1.0107485544   -2.0391627411    6.2450157474
C        1.8082407729   -1.0919117965    2.6517776240
C        1.7423001222   -1.0913120696    4.1363542065
N        1.6678518769   -1.1354069285    6.9862648223
H        1.9194782181   -1.0199765282   -1.2629938739
H        3.6293837806    0.2130335102    0.0671506086
H        0.1275593806   -2.2849173501   -0.0785005345
H        3.5701983759    0.1609721932    2.5185504350
H        0.0383409004   -2.3091854179    2.3729739269
H        3.0131803738    0.6468766753    4.4602540500
H        0.4826974156   -2.8561457497    4.3392954699
H        2.9017175945    0.5200082623    6.9113884359
H        0.4503129156   -2.7933066318    6.7958874433
21   
Generated by ForceBalance from scan.xyz: Frame 14 of 24
C        1.8866315455   -1.0373340894   -0.1683186252
C        2.9199429425   -0.4613323651    0.5780874225
C        0.8094893595   -1.6342743263    0.4949799894
C        2.8755834951   -0.4817150884    1.9732427918
C        0.7682000966   -1.6572283259    1.8901999818
C        2.3215702288   -0.0717298206    4.9051472512
C        1.1405403899   -2.1455040713    4.8437278147
C        2.2546584377   -0.1375279164    6.2978290461
C        1.1264068501   -2.1169322493    6.2391926784
C        1.8023816775   -1.0853383175    2.6527028530
C        1.7481285147   -1.0963570315    4.1342502411
N        1.6697383453   -1.1363222883    6.9752311273
H        1.9197798119   -1.0199605206   -1.2544627628
H        3.7653351464   -0.0012667439    0.0730741578
H       -0.0047801193   -2.0741776370   -0.0749616369
H        3.6990855780   -0.0543348095    2.5381433563
H       -0.0898770621   -2.0972161462    2.3903365736
H        2.7886567429    0.7876449012    4.4336220163
H        0.7057466694   -2.9934269373    4.3230504874
H        2.6900450217    0.6583248376    6.9006075340
H        0.6605227373   -2.9298385894    6.7945538273
21   
Generated by ForceBalance from scan.xyz: Frame 15 of 24
C        1.8840401975   -1.0406905110   -0.1636341387
C        2.9776845512   -0.5797590556    0.5771071697
C        0.7498724163   -1.5180203360    0.5020930914
C        2.9360874448   -0.5926287778    1.9730790115
C        0.7097521371   -1.5361316305    1.8980141534
C        2.2058046054   -0.0084529940    4.8990674096
C        1.2644632079   -2.2051418165    4.8335502381
C        2.1380943074   -0.0808542662    6.2920088399
C        1.2394778619   -2.1772497435    6.2295057230
C        1.8000570612   -1.0673817385    2.6503686109
C        1.7639980567   -1.0972777042    4.1317209179
N        1.6658031311   -1.1402062464    6.9654643720
H        1.9157938814   -1.0292471483   -1.2499408077
H        3.8669363419   -0.2179227670    0.0674606323
H       -0.1064699256   -1.8715123289   -0.0663729142
H        3.7970311553   -0.2535754852    2.5433594275
H       -0.1812812497   -1.8910714093    2.4092867036
H        2.5788156518    0.8924317158    4.4198809565
H        0.9213416132   -3.0887300639    4.3027139295
H        2.4735126938    0.7598227749    6.8978699268
H        0.8622238796   -3.0348936439    6.7848959872
21   
Generated by ForceBalance from scan.xyz: Frame 16 of 24
C        1.8799024196   -1.0480484843   -0.1632017270
C        3.0237123720   -0.7142107867    0.5697648071
C        0.7021101597   -1.3898431360    0.5101283796
C        2.9876481339   -0.7171310182    1.9667634057
C        0.6672003160   -1.3990835401    1.9070247782
C        2.0753557808    0.0447267280    4.9023009563
C        1.4049031430   -2.2499119635    4.8266417847
C        2.0040654417   -0.0365865093    6.2952805244
C        1.3650178501   -2.2274628411    6.2230031272
C        1.8066272963   -1.0497344052    2.6493847703
C        1.7798754252   -1.0901052444    4.1334665405
N        1.6572717607   -1.1472319548    6.9621106863
H        1.9069048614   -1.0448395867   -1.2497348415
H        3.9460921405   -0.4595740687    0.0541338017
H       -0.1908839125   -1.6486036615   -0.0529757931
H        3.8811607996   -0.4714149703    2.5351587292
H       -0.2507438909   -1.6592049925    2.4280328835
H        2.3474987958    0.9808597802    4.4224075173
H        1.1644346153   -3.1619090940    4.2871646825
H        2.2287164667    0.8373435487    6.9053390061
H        1.0861200654   -3.1238552933    6.7753669224
21   
Generated by ForceBalance from scan.xyz: Frame 17 of 24
C        1.8769395365   -1.0496498956   -0.1608090691
C        3.0561741794   -0.8677926632    0.5692197336
C        0.6662530680   -1.2378767787    0.5142285118
C        3.0242804117   -0.8699716977    1.9670299628
C        0.6351482821   -1.2442462388    1.9119319318
C        1.9168618453    0.0812114448    4.9020898940
C        1.5649201241   -2.2842127509    4.8321994080
C        1.8497547509   -0.0044113994    6.2956142340
C        1.5144703521   -2.2630869362    6.2288012985
C        1.8121657898   -1.0492415932    2.6504404731
C        1.7808858622   -1.0858795597    4.1387154789
N        1.6531710411   -1.1501756341    6.9640262912
H        1.9015754828   -1.0474828470   -1.2474227031
H        4.0017977301   -0.7296701318    0.0512549994
H       -0.2538810585   -1.3805986572   -0.0466374274
H        3.9419889232   -0.7362301962    2.5342223875
H       -0.3056137248   -1.3908136202    2.4365329425
H        2.0691204142    1.0422130537    4.4183907993
H        1.4470042429   -3.2201093299    4.2929228268
H        1.9529784719    0.8933445779    6.9037745102
H        1.3550609562   -3.1868298805    6.7835797759
21   
Generated by ForceBalance from scan.xyz: Frame 18 of 24
C        1.8816543712   -1.0351189439   -0.1638639232
C        3.0701322917   -1.0369446257    0.5737476737
C        0.6523251347   -1.0542314677    0.5030982790
C        3.0296690317   -1.0577850342    1.9713932600
C        0.6115825539   -1.0750750777    1.9007729330
C        1.7265988691    0.0854765320    4.8828520822
C        1.7442039740   -2.3061335801    4.8475408313
C        1.6862523878    0.0099284189    6.2782452954
C        1.7030316750   -2.2731067439    6.2446139856
C        1.7999472411   -1.0769802472    2.6458382208
C        1.7566827297   -1.0994322007    4.1363118247
N        1.6741743885   -1.1421253385    6.9640984127
H        1.9132812855   -1.0189108133   -1.2501887377
H        4.0290460646   -1.0221980926    0.0620155544
H       -0.2752459607   -1.0529566010   -0.0636588554
H        3.9532667222   -1.0592468433    2.5446978379
H       -0.3437895061   -1.0899369397    2.4191900024
H        1.7344487548    1.0513673237    4.3852650970
H        1.7661863623   -3.2566035454    4.3215038141
H        1.6624239497    0.9215417214    6.8739244982
H        1.6927558091   -3.2023219816    6.8128654153
21   
Generated by ForceBalance from scan.xyz: Frame 19 of 24
C        1.8921745740   -1.0149763347   -0.1641404394
C        3.0599736332   -1.2073403765    0.5815573208
C        0.6672639495   -0.8651665377    0.4944445258
C        3.0025286017   -1.2539618015    1.9776765701
C        0.6107006433   -0.9075927004    1.8908208387
C        1.5302492937    0.0559063382    4.8623212159
C        1.9210260873   -2.3038401693    4.8634427166
C        1.5240927532    0.0005412422    6.2589134912
C        1.8963899504   -2.2521847946    6.2600871740
C        1.7759411688   -1.1135432505    2.6445432558
C        1.7243058763   -1.1246596029    4.1326406434
N        1.7016941114   -1.1269441817    6.9627158055
H        1.9368414997   -0.9791506073   -1.2495304839
H        4.0167577385   -1.3156027409    0.0771511543
H       -0.2442606471   -0.7144112760   -0.0782310670
H        3.9113469396   -1.3954493800    2.5570900625
H       -0.3415128438   -0.7905734250    2.4020953099
H        1.3900014128    1.0038602945    4.3501329778
H        2.0820216065   -3.2491625759    4.3524060523
H        1.3750639897    0.9092639948    6.8406790802
H        2.0399025993   -3.1612096860    6.8427548351
21   
Generated by ForceBalance from scan.xyz: Frame 20 of 24
C        1.8953404072   -1.0114951809   -0.1644433562
C        3.0296950143   -1.3594742395    0.5766602321
C        0.6999716232   -0.7106915374    0.4973284399
C        2.9669767128   -1.4115609728    1.9716986268
C        0.6391415999   -0.7567488068    1.8925704408
C        1.3672907976    0.0149541981    4.8539136464
C        2.0787970136   -2.2685207796    4.8646665707
C        1.3732211520   -0.0332953247    6.2502245636
C        2.0514847863   -2.2133549875    6.2604044897
C        1.7687028953   -1.1201984609    2.6431801858
C        1.7185525793   -1.1316686581    4.1270747862
N        1.7062011013   -1.1219421044    6.9590569487
H        1.9434371036   -0.9718127744   -1.2495074276
H        3.9650758944   -1.5819793829    0.0696148748
H       -0.1852803673   -0.4410688813   -0.0728757481
H        3.8528107239   -1.6670005264    2.5476257424
H       -0.2917612045   -0.5279378844    2.4053681743
H        1.1037591805    0.9350657763    4.3395994556
H        2.3605953921   -3.1881999673    4.3591647380
H        1.1050964161    0.8503636049    6.8278655936
H        2.3186172783   -3.0916414741    6.8465995918
21   
Generated by ForceBalance from scan.xyz: Frame 21 of 24
C        1.8915222311   -1.0272388475   -0.1641317979
C        2.9846734236   -1.5000103789    0.5697666328
C        0.7470310586   -0.5863967397    0.5090084188
C        2.9320594553   -1.5351727830    1.9650091416
C        0.6963332826   -0.6165855202    1.9043636582
C        1.2425611646   -0.0256511883    4.8640902334
C        2.2168991981   -2.2081248084    4.8705896012
C        1.2366908454   -0.0829307197    6.2593593017
C        2.1672390112   -2.1666958163    6.2654801439
C        1.7858692596   -1.0975526540    2.6501992954
C        1.7397783874   -1.1146068222    4.1315344941
N        1.6876196648   -1.1291130454    6.9672079256
H        1.9317376881   -1.0010975302   -1.2499086338
H        3.8823578774   -1.8334633807    0.0555555362
H       -0.1092174549   -0.2235593169   -0.0536673851
H        3.7933441093   -1.8823421373    2.5297030784
H       -0.2028150917   -0.2893963601    2.4199788466
H        0.8836836633    0.8655334690    4.3569637585
H        2.6006376412   -3.0915530168    4.3679844570
H        0.8576494514    0.7586253055    6.8377013006
H        2.5267155567   -3.0133583255    6.8488181875
21   
Generated by ForceBalance from scan.xyz: Frame 22 of 24
C        1.8810433517   -1.0456970916   -0.1710208834
C        2.9272113685   -1.6235252703    0.5558089068
C        0.8001773842   -0.4783894173    0.5118880042
C        2.8916022703   -1.6341743541    1.9512804593
C        0.7678123845   -0.4865653078    1.9075385086
C        1.1325762919   -0.0755149391    4.8710653578
C        2.3420510456   -2.1333892095    4.8724927122
C        1.1054263685   -0.1532515854    6.2644145348
C        2.2608786012   -2.1176884750    6.2659060678
C        1.8143768236   -1.0612568428    2.6505635544
C        1.7698329528   -1.0858421628    4.1321930814
N        1.6560169339   -1.1509278275    6.9715960200
H        1.9071525903   -1.0388209868   -1.2574671229
H        3.7754954189   -2.0605903243    0.0354513611
H       -0.0238045246   -0.0374590587   -0.0431127381
H        3.7244413374   -2.0624316698    2.5017589608
H       -0.0929673976   -0.0697020144    2.4224864417
H        0.6872581563    0.7821478423    4.3758551605
H        2.8223194541   -2.9709131283    4.3756261062
H        0.6197058653    0.6314330785    6.8428584639
H        2.6987020876   -2.9298201053    6.8447217913
21   
Generated by ForceBalance from scan.xyz: Frame 23 of 24
C        1.8739732824   -1.0552624421   -0.1801105038
C        2.8497377337   -1.7460669575    0.5451535998
C        0.8739876378   -0.3627691271    0.5095220327
C        2.8244335585   -1.7423286977    1.9403795401
C        0.8518340025   -0.3593290057    1.9049523359
C        1.0179840815   -0.1514853566    4.8763614882
C        2.4651389017   -2.0427488519    4.8866531130
C        0.9814938242   -0.2388082719    6.2684795667
C        2.3644701213   -2.0445868371    6.2785020521
C        1.8315013988   -1.0416362349    2.6505119861
C        1.7852757346   -1.0677279472    4.1357176912
N        1.6385142247   -1.1642304694    6.9824199969
H        1.8910275511   -1.0589255905   -1.2667177295
H        3.6354749042   -2.2865679061    0.0238027095
H        0.1015801872    0.1686332950   -0.0403149687
H        3.6090678977   -2.2667032630    2.4762183917
H        0.0451192238    0.1603580515    2.4114822854
H        0.4718546159    0.6502734731    4.3906946224
H        3.0525679440   -2.8178752087    4.4062436524
H        0.3926446508    0.4771275260    6.8402595116
H        2.8912197812   -2.8016809795    6.8578115824
21   
Generated by ForceBalance from scan.xyz: Frame 24 of 24
C        1.8882221510   -1.0349878086   -0.1860581252
C        2.7383110707   -1.8773518765    0.5362949228
C        0.9937008740   -0.2149612332    0.5078536487
C        2.6923679818   -1.8971258663    1.9306684119
C        0.9510703061   -0.2378637015    1.9022774996
C        0.8687412236   -0.2934432571    4.8742652170
C        2.5927795903   -1.9309001385    4.9023667912
C        0.8648910587   -0.3492830196    6.2682497451
C        2.5130284783   -1.9146858165    6.2950918569
C        1.7986061002   -1.0791995891    2.6484155456
C        1.7530962855   -1.1015627097    4.1368949143
N        1.6677131003   -1.1421591053    6.9923020493
H        1.9223145962   -1.0178562588   -1.2720887543
H        3.4404074295   -2.5219762792    0.0139455602
H        0.3254645723    0.4464436475   -0.0374015001
H        3.3674080074   -2.5643424439    2.4548009951
H        0.2437538119    0.4134857895    2.4033276678
H        0.1760754815    0.3840530865    4.3883706199
H        3.3138563428   -2.5948612986    4.4396430292
H        0.1770574541    0.2796363306    6.8318833964
H        3.1666059103   -2.5598342686    6.8807128019
