21   
Generated by ForceBalance from scan.xyz: Frame 1 of 24
C        1.7955918762   -1.1722420187   -0.1113003485
C        0.7069710738   -0.5754561745    0.5246993106
C        2.8625805473   -1.6899002536    0.6221695282
C        1.7568449489   -1.0012674118    2.6786393894
C        0.6830599782   -0.4904732800    1.9283627612
C        2.8413988250   -1.5973091061    2.0255225213
C        4.0774160545   -2.4189295256    4.0640816408
C        5.3797661819   -3.1084836540    4.4446056670
N       -0.4321752152    0.0465415246    2.5880528279
N        3.9552745521   -2.1232919250    2.7232444225
O        3.2272659090   -2.1522512157    4.9088968195
H        1.8100820813   -1.2401439687   -1.1960541476
H       -0.1252853959   -0.1872506467   -0.0578832324
H        3.7026878182   -2.1593750282    0.1150593097
H        1.7455539733   -0.9539895851    3.7598690867
H        5.8676660794   -2.5231165075    5.2281084617
H        6.0776445555   -3.2410035344    3.6127108421
H        5.1418865045   -4.0888178238    4.8668735139
H       -0.9431134896    0.7384610900    2.0522696087
H       -0.2431582920    0.3731691168    3.5287375538
H        4.7090012502   -2.4431204130    2.1296082081
21   
Generated by ForceBalance from scan.xyz: Frame 2 of 24
C        1.7681560914   -1.2390010469   -0.0953063652
C        0.6855585880   -0.6208104059    0.5299181865
C        2.8555282795   -1.7055212782    0.6439774786
C        1.7842467394   -0.9102192493    2.6800878527
C        0.6867514059   -0.4580675124    1.9273091275
C        2.8623040258   -1.5280321691    2.0380337367
C        4.0368045932   -2.4617134384    4.0530834535
C        5.3506193720   -3.1219025878    4.4453722328
N       -0.4243581861    0.0981310538    2.5778840198
N        3.9934867725   -1.9949949775    2.7540709143
O        3.1124902700   -2.3513541360    4.8520843556
H        1.7596117932   -1.3691770279   -1.1744223179
H       -0.1639349070   -0.2770026643   -0.0557406635
H        3.6881597346   -2.2000474772    0.1488319467
H        1.7914669944   -0.8068199526    3.7579225408
H        5.7283050304   -2.6382603955    5.3496054689
H        6.1216693301   -3.0807119899    3.6705206459
H        5.1511778578   -4.1688081874    4.6914729871
H       -0.9539370166    0.7550629971    2.0168217243
H       -0.2257007534    0.4734091791    3.4981292788
H        4.7868585754   -2.2357090433    2.1744959064
21   
Generated by ForceBalance from scan.xyz: Frame 3 of 24
C        1.8357496741   -1.3326139981   -0.0218921583
C        0.7567356832   -0.6849162888    0.5789793715
C        2.9620324269   -1.6910415138    0.7211395340
C        1.9373126736   -0.7160499943    2.7014673972
C        0.7980497117   -0.3779526917    1.9516147457
C        3.0104273093   -1.3655883717    2.0856462626
C        4.1916376293   -2.3028364422    4.0789614683
C        5.5344957322   -2.9022608582    4.4700099254
N       -0.3085178429    0.2098959298    2.5818775757
N        4.1734759148   -1.7161504279    2.8240725593
O        3.2205290201   -2.3401388328    4.8245281248
H        1.7922660041   -1.5744803680   -1.0807411875
H       -0.1231016676   -0.4281147130   -0.0066088333
H        3.7915931737   -2.2143513749    0.2515743495
H        1.9812650569   -0.4972151696    3.7619849744
H        5.6779914369   -2.7737043441    5.5439624441
H        6.3791039339   -2.4581194376    3.9345785983
H        5.5160611052   -3.9769706979    4.2592668944
H       -0.8780725773    0.7888565419    1.9758435009
H       -0.0922216337    0.6850665327    3.4505163348
H        4.9958261911   -1.8810617406    2.2568556389
21   
Generated by ForceBalance from scan.xyz: Frame 4 of 24
C        1.8219442082   -1.4057493288    0.0224388140
C        0.7509932185   -0.7276622438    0.6031795141
C        2.9621770986   -1.7205401205    0.7663534488
C        1.9656201558   -0.6353516448    2.7007945064
C        0.8106030866   -0.3442456249    1.9562425467
C        3.0315426993   -1.3118006677    2.1054635656
C        4.1822660740   -2.3857153978    4.0264296918
C        5.5470634742   -2.9122962819    4.4446918964
N       -0.2901566710    0.2711320752    2.5699943559
N        4.1958930749   -1.6195074780    2.8697181449
O        3.1671601862   -2.6167797252    4.6698045859
H        1.7603340510   -1.7078523928   -1.0199051951
H       -0.1390065480   -0.5067848964    0.0180466185
H        3.7833872207   -2.2738929898    0.3178678660
H        2.0301507351   -0.3564331057    3.7474943407
H        5.6010547633   -2.9248658179    5.5344072908
H        6.3779968639   -2.3229755271    4.0454394653
H        5.6505267590   -3.9439697015    4.0915177008
H       -0.8754285021    0.8087207458    1.9412955719
H       -0.0646214019    0.7977815354    3.4058758574
H        5.0560202018   -1.6549931193    2.3361127430
21   
Generated by ForceBalance from scan.xyz: Frame 5 of 24
C        1.7912796181   -1.4838970980    0.0727216042
C        0.7365370077   -0.7580973933    0.6251722743
C        2.9347632958   -1.7738720126    0.8228087182
C        1.9704868856   -0.5716956364    2.7012003428
C        0.8117840298   -0.3010018097    1.9541736605
C        3.0204270136   -1.2944045136    2.1355596555
C        4.1845375980   -2.5132883941    3.9447939793
C        5.5713947469   -2.9261202055    4.4161318962
N       -0.2737391769    0.3650078528    2.5419372114
N        4.1824088248   -1.5738603737    2.9244156418
O        3.1618703265   -2.9692450248    4.4378423245
H        1.7138123546   -1.8412917184   -0.9509060019
H       -0.1549695956   -0.5555591193    0.0354759414
H        3.7440447999   -2.3643676145    0.4019428146
H        2.0538469107   -0.2363703323    3.7311041891
H        5.5359340935   -3.1159655553    5.4900166326
H        6.3390779223   -2.1760742880    4.2033677424
H        5.8506624952   -3.8613491060    3.9190312722
H       -0.8611689335    0.8689443746    1.8878205163
H       -0.0310949962    0.9415921004    3.3391659209
H        5.0704093182   -1.4273572767    2.4594347970
21   
Generated by ForceBalance from scan.xyz: Frame 6 of 24
C        1.7539661625   -1.4874764777    0.1384508963
C        0.7138413047   -0.7250759494    0.6699221061
C        2.9003092481   -1.7608477284    0.8903438692
C        1.9603718419   -0.4820457076    2.7301352278
C        0.8023532066   -0.2169014765    1.9789503838
C        2.9952649277   -1.2415908762    2.1855328823
C        4.2739074122   -2.5899908805    3.8129985633
C        5.6570640529   -2.8069556889    4.4104252673
N       -0.2695830683    0.4887364576    2.5461803590
N        4.1650663080   -1.4943083486    2.9794377728
O        3.3312608155   -3.3272438435    4.0728897020
H        1.6642729153   -1.8802127502   -0.8710931560
H       -0.1780848460   -0.5319144802    0.0774975959
H        3.7030694606   -2.3728991119    0.4900157959
H        2.0556598923   -0.1128319984    3.7481366717
H        5.5591196450   -2.8885118290    5.4956018418
H        6.3715395127   -2.0127556499    4.1745793071
H        6.0498988422   -3.7596101286    4.0435803025
H       -0.8556683450    0.9714551037    1.8750013728
H       -0.0116056613    1.0980701944    3.3137046595
H        5.0220948708   -1.0374402106    2.6946931749
21   
Generated by ForceBalance from scan.xyz: Frame 7 of 24
C        1.8863320578   -0.7122737078   -0.2218475405
C        0.7282094393   -0.4384155085    0.5068602248
C        3.0449425722   -1.1707812573    0.4095001871
C        1.8641955626   -1.1143122187    2.5321692549
C        0.7046414726   -0.6341710985    1.8990974157
C        3.0186081317   -1.3809231327    1.7910957185
C        4.6898112178   -3.0998867873    2.3985516443
C        5.7994770667   -3.4265664135    3.3875732654
N       -0.4744054183   -0.4253459267    2.6341896115
N        4.2049633010   -1.8050912066    2.4716748092
O        4.2826306516   -3.9210026365    1.5871877335
H        1.8881815155   -0.5521068162   -1.2968921164
H       -0.1639886714   -0.0780186395   -0.0008711576
H        3.9501833613   -1.3801833327   -0.1497587209
H        1.8590042991   -1.3034136197    3.6040623066
H        5.4476729156   -4.2170614885    4.0567259482
H        6.1267991878   -2.5712680214    3.9859106618
H        6.6548006794   -3.8219361035    2.8342979205
H       -1.1141808876    0.2365404891    2.2098589585
H       -0.3234359352   -0.2069137210    3.6123592728
H        4.4597930786   -1.2731490504    3.2942966009
21   
Generated by ForceBalance from scan.xyz: Frame 8 of 24
C        1.8668153274   -0.8045763162   -0.2103072696
C        0.7203780218   -0.4624656083    0.5083541391
C        3.0155262102   -1.2712242749    0.4317954725
C        1.8475742982   -1.0854936997    2.5563946869
C        0.7015326795   -0.5958199956    1.9075974853
C        2.9896779775   -1.4240395168    1.8227785033
C        4.8054473992   -3.0463957928    2.3030726774
C        5.8355592068   -3.4208582076    3.3584442623
N       -0.4651988075   -0.3159971671    2.6403746746
N        4.1570097417   -1.8417736822    2.5271034170
O        4.5959871144   -3.7510160666    1.3243910744
H        1.8690806018   -0.6905483143   -1.2912484543
H       -0.1626853508   -0.0961033640   -0.0107574117
H        3.9066692213   -1.5344491334   -0.1251441374
H        1.8390584644   -1.2239849193    3.6365180338
H        5.5092813953   -4.3417767385    3.8504663534
H        5.9958657535   -2.6490382440    4.1168734972
H        6.7846661657   -3.6334763509    2.8605738816
H       -1.0859669692    0.3442699988    2.1860446388
H       -0.2967911695   -0.0469624796    3.6031269916
H        4.2680863118   -1.4471329758    3.4525401987
21   
Generated by ForceBalance from scan.xyz: Frame 9 of 24
C        1.8358827092   -0.8597789496   -0.1917366601
C        0.7032380846   -0.4512011604    0.5130872622
C        2.9650545197   -1.3592028616    0.4609809440
C        1.8045800111   -1.0630676283    2.5784767086
C        0.6802057457   -0.5462600771    1.9155234296
C        2.9344757410   -1.4710749700    1.8576461981
C        4.8716982164   -2.9930735423    2.2679796591
C        5.8480287390   -3.4047074716    3.3602020825
N       -0.4740362592   -0.1989858558    2.6398374382
N        4.0678227211   -1.9133292290    2.5917398104
O        4.8329978249   -3.5695401274    1.1879508920
H        1.8444167520   -0.7756417540   -1.2754495522
H       -0.1637571406   -0.0632209191   -0.0171404187
H        3.8396829803   -1.6777630341   -0.0905124979
H        1.7888392866   -1.1660918336    3.6628453727
H        5.6095912826   -4.4258917510    3.6710787054
H        5.8362116027   -2.7531942955    4.2388905213
H        6.8568198783   -3.4166314328    2.9402251327
H       -1.0669347797    0.4724156387    2.1649293864
H       -0.2928173518    0.0947106125    3.5930981878
H        4.0883647478   -1.6264344367    3.5618027024
21   
Generated by ForceBalance from scan.xyz: Frame 10 of 24
C        1.7966791074   -0.9114356155   -0.1845191673
C        0.6856334559   -0.4420915741    0.5154997590
C        2.9077688711   -1.4496232298    0.4696323794
C        1.7716745258   -1.0590844124    2.5858473240
C        0.6659118176   -0.5101927857    1.9198727777
C        2.8824279075   -1.5298584277    1.8699180826
C        4.9189776625   -2.9525599099    2.2371341487
C        5.8617624696   -3.3976376986    3.3461171370
N       -0.4691032606   -0.1018202272    2.6429555978
N        3.9808587730   -2.0147495677    2.6232317158
O        5.0173480472   -3.3940505771    1.0976814398
H        1.8034416296   -0.8495582663   -1.2698142140
H       -0.1669424898   -0.0284202551   -0.0185166758
H        3.7621041663   -1.8179723326   -0.0805879208
H        1.7572097159   -1.1359842341    3.6726105564
H        5.7431630399   -4.4752553713    3.4893193231
H        5.7001726846   -2.8920551982    4.3027169405
H        6.8902319817   -3.2210257427    3.0209759448
H       -1.0361182365    0.5839440889    2.1570516607
H       -0.2701740532    0.2043152979    3.5887747165
H        3.9449965165   -1.8087172703    3.6127518110
21   
Generated by ForceBalance from scan.xyz: Frame 11 of 24
C        1.7639921934   -0.9568751449   -0.1821132112
C        0.6763254865   -0.4365285903    0.5174089661
C        2.8610748006   -1.5267977367    0.4698889244
C        1.7585233819   -1.0559036618    2.5895448795
C        0.6672632351   -0.4813486545    1.9231808272
C        2.8468062678   -1.5784086606    1.8724549254
C        4.9707229338   -2.8918251173    2.2177102360
C        5.8783145653   -3.3761752320    3.3398197984
N       -0.4460577769   -0.0201301947    2.6482807166
N        3.9145340509   -2.1087275822    2.6354433218
O        5.1925878630   -3.1837209656    1.0470851282
H        1.7634306360   -0.9145919182   -1.2684136836
H       -0.1656556160   -0.0016060204   -0.0164898433
H        3.6977147768   -1.9323007959   -0.0802836970
H        1.7519847704   -1.1085636102    3.6780309058
H        5.8766151451   -4.4696232981    3.3386555614
H        5.5925253508   -3.0220930427    4.3347028908
H        6.8993734456   -3.0492896660    3.1266900574
H       -0.9909725326    0.6782915272    2.1551281182
H       -0.2276716149    0.2948241127    3.5869219884
H        3.8228130133   -1.9889836749    3.6353863412
21   
Generated by ForceBalance from scan.xyz: Frame 12 of 24
C        1.7412996601   -1.0058608852   -0.1806250649
C        0.6768034339   -0.4368489858    0.5162414111
C        2.8215417332   -1.6060641174    0.4727332296
C        1.7514244830   -1.0595442725    2.5907128314
C        0.6754605573   -0.4593708383    1.9226794267
C        2.8173160696   -1.6307619986    1.8762646823
C        5.0084590325   -2.8353593014    2.2212573729
C        5.8928681075   -3.3576553441    3.3450532002
N       -0.4159586389    0.0525757035    2.6471777212
N        3.8535781470   -2.2120953452    2.6443431687
O        5.3266389119   -2.9747220014    1.0444709144
H        1.7347365953   -0.9816510692   -1.2674703515
H       -0.1529069642    0.0188043364   -0.0195479095
H        3.6430801990   -2.0431469094   -0.0757299225
H        1.7523896384   -1.0900391608    3.6800991465
H        6.0112558770   -4.4373590642    3.2197865213
H        5.5097919718   -3.1576097584    4.3500694289
H        6.8830815040   -2.9052360871    3.2459138472
H       -0.9379189505    0.7631215426    2.1465333259
H       -0.1799355314    0.3739921828    3.5793656901
H        3.7152202588   -2.1703137254    3.6451402904
21   
Generated by ForceBalance from scan.xyz: Frame 13 of 24
C        1.7136673125   -1.0557300600   -0.1877306261
C        0.6754936362   -0.4397405306    0.5094131704
C        2.7760209116   -1.6860273765    0.4662615536
C        1.7460694023   -1.0677366839    2.5842678524
C        0.6848731715   -0.4415754307    1.9158736019
C        2.7847645456   -1.6856566721    1.8697274572
C        5.0302853295   -2.7737136999    2.2267788322
C        5.8988524274   -3.3357811725    3.3436029800
N       -0.3815527251    0.1196217415    2.6412562464
N        3.7931622576   -2.3195215994    2.6344438440
O        5.4249253533   -2.7482072733    1.0655193265
H        1.6980198979   -1.0478155459   -1.2747012483
H       -0.1422547264    0.0368733127   -0.0265469791
H        3.5805877027   -2.1537102519   -0.0824268003
H        1.7588488205   -1.0776427768    3.6738962925
H        6.1489296240   -4.3720625648    3.1011854723
H        5.4343481065   -3.3059470675    4.3335933390
H        6.8343784448   -2.7707148327    3.3727820962
H       -0.8797193867    0.8434502619    2.1353847942
H       -0.1264574541    0.4436473756    3.5675315779
H        3.6117162593   -2.3601416122    3.6284599117
21   
Generated by ForceBalance from scan.xyz: Frame 14 of 24
C        1.6921497533   -1.1058071220   -0.1908082667
C        0.6843967852   -0.4422996412    0.5085028113
C        2.7351731887   -1.7645687740    0.4650383557
C        1.7546315497   -1.0742347341    2.5830296047
C        0.7080685869   -0.4224170484    1.9142883570
C        2.7617076581   -1.7383599443    1.8672420240
C        5.0517549241   -2.6941145834    2.2519531367
C        5.9057330989   -3.3076981883    3.3523848364
N       -0.3297115987    0.1884277904    2.6411964442
N        3.7490128088   -2.4216819974    2.6204614795
O        5.5044489086   -2.4851012415    1.1318119434
H        1.6641542103   -1.1152713574   -1.2774731303
H       -0.1215670755    0.0549076913   -0.0266588101
H        3.5182175309   -2.2677544678   -0.0846070995
H        1.7829002009   -1.0636076904    3.6721973697
H        6.2885285698   -4.2693489334    3.0006472082
H        5.3775152481   -3.4614887564    4.2979614650
H        6.7661954595   -2.6560553692    3.5268659394
H       -0.8062648354    0.9223245277    2.1289864939
H       -0.0525151762    0.5176258387    3.5592860371
H        3.5269199102   -2.5560584849    3.5979201439
21   
Generated by ForceBalance from scan.xyz: Frame 15 of 24
C        1.6650525306   -1.1551390181   -0.1990928183
C        0.6982311759   -0.4419098177    0.5104376306
C        2.6872360232   -1.8498212367    0.4511866397
C        1.7765618722   -1.0905334280    2.5751421738
C        0.7446550698   -0.4050554284    1.9149400332
C        2.7408703135   -1.8030438949    1.8507460158
C        5.0619876092   -2.6194737653    2.2783208096
C        5.9119976127   -3.2802669597    3.3536819604
N       -0.2548725722    0.2569737700    2.6506942347
N        3.7143426400   -2.5368708973    2.5805697148
O        5.5483332292   -2.2216232512    1.2265687636
H        1.6168060506   -1.1772384180   -1.2848056767
H       -0.0955404890    0.0816455287   -0.0178648356
H        3.4386683475   -2.3960166060   -0.1036078929
H        1.8283421222   -1.0649307599    3.6629357615
H        6.4411706915   -4.1266439091    2.9084222512
H        5.3435605953   -3.6332242298    4.2191239770
H        6.6653622320   -2.5624816300    3.6899496705
H       -0.7101223758    1.0032163072    2.1369013943
H        0.0516192901    0.5863893312    3.5593622492
H        3.4593248775   -2.7630846507    3.5331304902
21   
Generated by ForceBalance from scan.xyz: Frame 16 of 24
C        1.6399283232   -1.2070440744   -0.2203646966
C        0.7215525355   -0.4457119597    0.5041876957
C        2.6447279333   -1.9357384726    0.4190871439
C        1.8231061062   -1.1098061390    2.5533078969
C        0.8034385116   -0.3918286016    1.9063965023
C        2.7352117763   -1.8701988216    1.8141088537
C        5.0746192441   -2.5301025382    2.3182592953
C        5.9277084333   -3.2530228639    3.3501629492
N       -0.1494840198    0.3214933529    2.6554442967
N        3.7080896305   -2.6432753901    2.5134224982
O        5.5718091402   -1.9228781538    1.3784064357
H        1.5636369863   -1.2406322985   -1.3041002533
H       -0.0628713447    0.1035374118   -0.0120525671
H        3.3587602604   -2.5262177758   -0.1424229465
H        1.9085599895   -1.0690914088    3.6381648168
H        6.5955695009   -3.9434524098    2.8289630967
H        5.3503361670   -3.8104543914    4.0934590871
H        6.5526566752   -2.5158753553    3.8621853697
H       -0.5842018352    1.0808071283    2.1429888772
H        0.1918264614    0.6475354531    3.5528658289
H        3.4143581889   -3.0035942954    3.4124306617
21   
Generated by ForceBalance from scan.xyz: Frame 17 of 24
C        1.5659647565   -1.2782466601   -0.2287745415
C        0.7007119048   -0.4670014807    0.5065340771
C        2.5668819484   -2.0223849991    0.4001989223
C        1.8484679935   -1.1129428463    2.5356942669
C        0.8330609299   -0.3752601862    1.9032760407
C        2.7044185856   -1.9252346425    1.7877134679
C        5.0439912519   -2.4124215957    2.4244492915
C        5.9097578975   -3.2236717124    3.3776170965
N       -0.0659498266    0.3947921357    2.6618714478
N        3.6938582830   -2.7091658325    2.4637256446
O        5.5223933907   -1.5785715624    1.6657709360
H        1.4511282727   -1.3367162206   -1.3080012086
H       -0.0816572658    0.0958735160    0.0017554124
H        3.2422832220   -2.6554716552   -0.1648795885
H        1.9791684947   -1.0454436211    3.6141189398
H        6.6887328262   -3.7261460811    2.7986789478
H        5.3565198437   -3.9717997708    3.9528163714
H        6.4063831352   -2.5362987246    4.0681439103
H       -0.4886401050    1.1569474381    2.1436157244
H        0.3173050704    0.7298297633    3.5388307160
H        3.3694012743   -3.2668061362    3.2435900670
21   
Generated by ForceBalance from scan.xyz: Frame 18 of 24
C        2.1233516902   -0.7040442382    0.0832568674
C        0.9001294843   -0.2958769368    0.6157644386
C        3.0124571952   -1.4749914037    0.8374346519
C        1.4286349852   -1.4434455064    2.6792238918
C        0.5413883361   -0.6541359466    1.9277885989
C        2.6463171630   -1.8487292482    2.1346694157
C        4.4853634457   -2.0831588132    3.7654198994
C        5.4676152843   -3.0721701047    4.3766218797
N       -0.7065911776   -0.2863234822    2.4578538278
N        3.5361408300   -2.6426203378    2.9346865281
O        4.5329810465   -0.8839266720    4.0121271911
H        2.3899139516   -0.4066223956   -0.9276500751
H        0.2194470507    0.3063339718    0.0175334332
H        3.9770718977   -1.7736473188    0.4379562146
H        1.1807379766   -1.7375969240    3.6959057640
H        6.4707186545   -2.8405058388    4.0070006090
H        5.2394576150   -4.1186507328    4.1539418856
H        5.4764133017   -2.9309607886    5.4600342522
H       -1.0970259959    0.5530238958    2.0442849522
H       -0.7214513674   -0.2270453075    3.4700004626
H        3.6535945862   -3.6130699152    2.6727868558
21   
Generated by ForceBalance from scan.xyz: Frame 19 of 24
C        2.0808244970   -0.7877504879    0.0374475385
C        0.9003030808   -0.3174720840    0.6125713581
C        2.9789519566   -1.5643807339    0.7749244175
C        1.4825082254   -1.4276798366    2.6842922539
C        0.5942278078   -0.6234697796    1.9513128290
C        2.6576186692   -1.8943427233    2.0972482408
C        4.3537854897   -2.1403398595    3.8774643395
C        5.4601341026   -3.0546724915    4.3825055501
N       -0.6106523454   -0.1909789209    2.5291485379
N        3.5629485928   -2.6825714126    2.8781309797
O        4.1708331943   -1.0238555914    4.3457817564
H        2.3114215823   -0.5299557792   -0.9930273110
H        0.2139927811    0.2920840818    0.0285915656
H        3.9145610390   -1.9030647827    0.3383794386
H        1.2696924557   -1.6834697847    3.7183176535
H        6.4250212572   -2.5969062660    4.1455842811
H        5.4297787901   -4.0625120541    3.9584929960
H        5.3876050607   -3.1228217365    5.4705617048
H       -0.9886553776    0.6510592956    2.1097313463
H       -0.5733227869   -0.1036147934    3.5386891612
H        3.9216488145   -3.5151429279    2.4271639378
21   
Generated by ForceBalance from scan.xyz: Frame 20 of 24
C        2.0170193242   -0.8626028921   -0.0269680823
C        0.8649459132   -0.3567061875    0.5749155197
C        2.9391036638   -1.6152708552    0.7046543369
C        1.5228682429   -1.3864664999    2.6675268311
C        0.6129863229   -0.6051729662    1.9367525451
C        2.6708341609   -1.8877577823    2.0533831823
C        4.2455546113   -2.1889527363    3.9482084040
C        5.4276366922   -3.0302396644    4.4061639795
N       -0.5632574011   -0.1384924579    2.5458712455
N        3.6044113200   -2.6548759659    2.8114918523
O        3.8847611718   -1.1940079471    4.5646953067
H        2.2077084149   -0.6516142224   -1.0760822603
H        0.1597094181    0.2341524456   -0.0054719177
H        3.8516782746   -1.9814027170    0.2412213772
H        1.3483347726   -1.5927973113    3.7183891348
H        6.3313687130   -2.4163218578    4.3527169279
H        5.5795843907   -3.9404794564    3.8190274028
H        5.2778713513   -3.3029969216    5.4536471176
H       -0.9521757356    0.6896981915    2.1093846507
H       -0.4839064633   -0.0133950257    3.5489893005
H        4.0998723472   -3.3662393306    2.2887944659
21   
Generated by ForceBalance from scan.xyz: Frame 21 of 24
C        1.9553129415   -0.9237002662   -0.0633086407
C        0.8210671437   -0.3969241052    0.5543377471
C        2.9099239179   -1.6319929807    0.6690734862
C        1.5700486641   -1.3132191266    2.6743596863
C        0.6253569571   -0.5822062346    1.9351763384
C        2.7013307796   -1.8342805941    2.0422828216
C        4.1860486629   -2.2195783631    4.0129487807
C        5.4079200175   -3.0187369387    4.4410251549
N       -0.5339552619   -0.1010105970    2.5640629802
N        3.6731428661   -2.5676780000    2.7760425920
O        3.6968438943   -1.3571036165    4.7337960926
H        2.1050347681   -0.7667956820   -1.1284147170
H        0.0876243451    0.1569585761   -0.0273771891
H        3.8043025183   -2.0184322321    0.1862267686
H        1.4355828887   -1.4624152159    3.7392750313
H        6.2437731128   -2.3268451286    4.5776894226
H        5.7023892112   -3.7981533175    3.7323316205
H        5.2017314807   -3.4798151401    5.4102360506
H       -0.9488806775    0.7027919196    2.1066746295
H       -0.4238690466    0.0645250705    3.5583132986
H        4.2521075265   -3.1816297057    2.2176612183
21   
Generated by ForceBalance from scan.xyz: Frame 22 of 24
C        1.9002818885   -0.9867640250   -0.0962943334
C        0.7803463703   -0.4407336847    0.5311361879
C        2.8847415963   -1.6503247356    0.6363325220
C        1.6124733187   -1.2403190205    2.6704039930
C        0.6337006708   -0.5611774445    1.9247611455
C        2.7293061768   -1.7820088763    2.0269685027
C        4.1383489445   -2.2733932192    4.0464336143
C        5.3957899578   -3.0291613922    4.4505425672
N       -0.5107720229   -0.0648585949    2.5678009384
N        3.7406599880   -2.4743264463    2.7398665442
O        3.5339335057   -1.5645076147    4.8451417756
H        2.0128637713   -0.8840644326   -1.1725160530
H        0.0209288921    0.0747485796   -0.0523653662
H        3.7623242669   -2.0582741642    0.1398706253
H        1.5162501437   -1.3339517735    3.7447119228
H        6.1431360989   -2.3035172179    4.7829102217
H        5.8254069461   -3.6436902607    3.6540893931
H        5.1586232776   -3.6701696746    5.3036769482
H       -0.9502837427    0.7139796104    2.0908464797
H       -0.3761644227    0.1386024579    3.5518376433
H        4.3820926174   -2.9989349925    2.1598540181
21   
Generated by ForceBalance from scan.xyz: Frame 23 of 24
C        1.8636007041   -1.0449582123   -0.1106754857
C        0.7567229777   -0.4841241932    0.5268648669
C        2.8799164546   -1.6596362611    0.6197632440
C        1.6760524112   -1.1610363676    2.6759066188
C        0.6604127690   -0.5391044346    1.9287713970
C        2.7795652863   -1.7190849578    2.0215190909
C        4.1330061671   -2.3224910127    4.0612824003
C        5.4062012401   -3.0615846438    4.4471946813
N       -0.4716705575   -0.0327593372    2.5850189662
N        3.8314932254   -2.3622529226    2.7171449591
O        3.4448603693   -1.7554954364    4.9056904831
H        1.9378457983   -0.9975101811   -1.1940668445
H       -0.0311884382   -0.0107794466   -0.0544780419
H        3.7424226449   -2.0857807530    0.1120155471
H        1.6168195446   -1.2054946177    3.7555952363
H        6.0770416482   -2.3581830541    4.9475468704
H        5.9334837758   -3.5187276946    3.6048115366
H        5.1501726755   -3.8414469707    5.1694370361
H       -0.9413545846    0.7154756996    2.0883542783
H       -0.3127147721    0.2139409323    3.5553565116
H        4.5109256424   -2.8189652127    2.1234575733
21   
Generated by ForceBalance from scan.xyz: Frame 24 of 24
C        1.8260466476   -1.1031851822   -0.1221222086
C        0.7299555064   -0.5242257713    0.5178219781
C        2.8687528890   -1.6711219474    0.6084723002
C        1.7197035446   -1.0793022759    2.6716049813
C        0.6737636031   -0.5114023679    1.9228727562
C        2.8119754937   -1.6566931321    2.0142357262
C        4.1060278558   -2.3707027257    4.0607892973
C        5.3950182272   -3.0855511125    4.4402234517
N       -0.4479166116    0.0101616960    2.5843533039
N        3.8979811086   -2.2443100799    2.7051323078
O        3.3341249490   -1.9525137486    4.9198779037
H        1.8680819602   -1.1122108463   -1.2082357757
H       -0.0813632498   -0.0921358224   -0.0633888481
H        3.7182375414   -2.1190345796    0.0973826970
H        1.6875192005   -1.0791919319    3.7532644920
H        5.9790291141   -2.4276213002    5.0890530812
H        6.0119498133   -3.3834706302    3.5874319457
H        5.1395351329   -3.9763929213    5.0205553573
H       -0.9382686572    0.7326090750    2.0699854863
H       -0.2717963511    0.2938437488    3.5414166135
H        4.6156442143   -2.6319198549    2.1073979403
