10
-165
  C      0.017   0.834   -1.244
  C      -0.968   -0.318   -1.127
  O      -0.544   1.948   -0.581
  O      -0.283   -1.506   -1.469
  H      0.968   0.503   -0.778
  H      0.230   1.035   -2.314
  H      -1.335   -0.331   -0.080
  H      -1.845   -0.127   -1.778
  H      0.039   2.706   -0.707
  H      -0.911   -2.237   -1.455
10
-150
  C      -5.162   3.902   -14.161
  C      -5.810   2.523   -14.227
  O      -5.936   4.711   -13.298
  O      -4.792   1.569   -14.456
  H      -4.135   3.747   -13.772
  H      -5.067   4.338   -15.176
  H      -6.313   2.365   -13.251
  H      -6.596   2.497   -15.009
  H      -5.579   5.607   -13.316
  H      -5.204   0.705   -14.580
10
-135
  C      -4.299   2.091   -8.981
  C      -2.870   2.077   -9.533
  O      -4.641   0.776   -8.587
  O      -2.168   3.178   -8.988
  H      -4.292   2.791   -8.120
  H      -5.008   2.496   -9.730
  H      -2.427   1.110   -9.221
  H      -2.875   2.097   -10.641
  H      -5.556   0.778   -8.281
  H      -1.282   3.193   -9.370
10
-120
  C      -4.312   2.076   -9.015
  C      -2.879   2.106   -9.558
  O      -4.571   0.793   -8.475
  O      -2.151   3.109   -8.874
  H      -4.378   2.875   -8.249
  H      -5.035   2.327   -9.818
  H      -2.457   1.095   -9.394
  H      -2.886   2.289   -10.652
  H      -5.463   0.791   -8.108
  H      -1.243   3.103   -9.201
10
-105
  C      -8.216   3.987   -19.300
  C      -6.944   4.764   -19.636
  O      -9.341   4.806   -19.558
  O      -6.414   4.280   -20.856
  H      -8.207   3.065   -19.914
  H      -8.189   3.677   -18.235
  H      -7.219   5.836   -19.683
  H      -6.210   4.644   -18.812
  H      -10.138   4.272   -19.456
  H      -5.672   4.842   -21.111
10
-90
  C      -7.770   3.673   -18.405
  C      -6.630   4.649   -18.641
  O      -8.984   4.267   -18.823
  O      -6.105   4.445   -19.938
  H      -7.534   2.743   -18.958
  H      -7.803   3.420   -17.324
  H      -7.031   5.672   -18.496
  H      -5.852   4.483   -17.866
  H      -9.670   3.589   -18.833
  H      -5.504   5.171   -20.145
10
-75
  C      -2.239   0.413   -4.989
  C      -1.632   1.799   -4.913
  O      -3.485   0.489   -5.649
  O      -1.135   2.157   -6.185
  H      -1.520   -0.242   -5.522
  H      -2.344   0.021   -3.954
  H      -2.420   2.494   -4.558
  H      -0.829   1.786   -4.145
  H      -3.773   -0.406   -5.864
  H      -0.926   3.099   -6.179
10
-60
  C      -1.238   1.579   -4.170
  C      -2.021   0.281   -4.158
  O      -0.884   1.898   -5.496
  O      -3.187   0.433   -4.935
  H      -1.874   2.368   -3.718
  H      -0.353   1.450   -3.510
  H      -1.365   -0.519   -4.560
  H      -2.243   0.026   -3.099
  H      -0.491   2.778   -5.503
  H      -3.615   -0.428   -5.012
10
-45
  C      -2.323   0.460   -4.717
  C      -1.398   1.667   -4.805
  O      -3.404   0.624   -5.603
  O      -1.180   2.003   -6.154
  H      -1.737   -0.448   -4.978
  H      -2.636   0.349   -3.657
  H      -1.875   2.512   -4.263
  H      -0.463   1.418   -4.257
  H      -3.940   -0.178   -5.573
  H      -0.643   2.804   -6.180
10
-30
  C      -2.324   0.454   -4.703
  C      -1.387   1.668   -4.794
  O      -3.312   0.529   -5.702
  O      -1.299   2.113   -6.126
  H      -1.718   -0.469   -4.832
  H      -2.741   0.419   -3.675
  H      -1.792   2.474   -4.145
  H      -0.406   1.375   -4.363
  H      -3.879   -0.247   -5.615
  H      -0.705   2.873   -6.143
10
-15
  C      0.116   0.090   -1.701
  C      -1.233   0.532   -1.082
  O      0.022   0.055   -3.105
  O      -2.062   1.100   -2.067
  H      0.904   0.804   -1.381
  H      0.391   -0.894   -1.268
  H      -1.722   -0.355   -0.626
  H      -1.019   1.233   -0.248
  H      0.876   -0.234   -3.447
  H      -2.882   1.370   -1.637
10
0
  C      0.098   0.053   -1.719
  C      -1.225   0.575   -1.091
  O      0.051   0.156   -3.121
  O      -2.109   1.009   -2.096
  H      0.943   0.635   -1.296
  H      0.252   -0.998   -1.394
  H      -1.672   -0.238   -0.481
  H      -0.981   1.395   -0.383
  H      0.889   -0.176   -3.465
  H      -2.912   1.321   -1.662
10
15
  C      0.092   0.022   -1.696
  C      -1.202   0.595   -1.068
  O      0.113   0.264   -3.082
  O      -2.146   0.887   -2.070
  H      0.961   0.472   -1.172
  H      0.134   -1.069   -1.491
  H      -1.582   -0.138   -0.326
  H      -0.944   1.513   -0.498
  H      0.937   -0.098   -3.429
  H      -2.936   1.230   -1.636
10
30
  C      0.076   0.000   -1.694
  C      -1.185   0.617   -1.069
  O      0.177   0.372   -3.047
  O      -2.187   0.766   -2.046
  H      0.949   0.317   -1.085
  H      0.010   -1.105   -1.604
  H      -1.494   -0.026   -0.218
  H      -0.918   1.606   -0.639
  H      0.977   -0.032   -3.404
  H      -2.959   1.154   -1.619
10
45
  C      0.063   -0.001   -1.703
  C      -1.181   0.623   -1.083
  O      0.251   0.505   -3.003
  O      -2.233   0.617   -2.019
  H      0.918   0.204   -1.025
  H      -0.076   -1.103   -1.728
  H      -1.416   0.060   -0.155
  H      -0.935   1.663   -0.778
  H      1.014   0.060   -3.390
  H      -2.991   1.059   -1.619
10
60
  C      0.115   -0.791   0.069
  C      0.035   0.680   0.429
  O      0.355   -0.921   -1.313
  O      -1.017   1.279   -0.292
  H      0.914   -1.252   0.688
  H      -0.845   -1.267   0.361
  H      -0.100   0.757   1.529
  H      1.012   1.146   0.183
  H      0.279   -1.853   -1.549
  H      -0.978   2.232   -0.151
10
75
  C      -2.624   0.631   -5.699
  C      -1.829   1.920   -5.718
  O      -2.611   0.060   -6.989
  O      -2.588   2.922   -6.359
  H      -2.170   -0.047   -4.944
  H      -3.650   0.871   -5.354
  H      -1.586   2.195   -4.669
  H      -0.871   1.719   -6.239
  H      -3.260   -0.653   -7.017
  H      -2.016   3.679   -6.530
10
90
  C      -2.694   2.196   -6.399
  C      -2.452   0.755   -6.815
  O      -3.972   2.601   -6.850
  O      -1.841   0.736   -8.089
  H      -2.622   2.265   -5.293
  H      -1.875   2.808   -6.826
  H      -1.805   0.269   -6.054
  H      -3.431   0.235   -6.800
  H      -4.049   3.556   -6.738
  H      -1.848   -0.171   -8.420
10
105
  C      -2.676   2.208   -6.415
  C      -2.477   0.747   -6.817
  O      -4.007   2.592   -6.707
  O      -1.720   0.695   -8.012
  H      -2.460   2.326   -5.332
  H      -1.926   2.804   -6.970
  H      -1.960   0.205   -5.998
  H      -3.484   0.299   -6.928
  H      -4.093   3.540   -6.549
  H      -1.693   -0.220   -8.317
10
120
  C      -2.513   2.232   -6.508
  C      -2.664   0.732   -6.784
  O      -3.784   2.846   -6.614
  O      -1.865   0.391   -7.902
  H      -2.070   2.397   -5.504
  H      -1.795   2.622   -7.256
  H      -2.374   0.144   -5.889
  H      -3.741   0.549   -6.966
  H      -3.678   3.794   -6.463
  H      -1.990   -0.548   -8.090
10
135
  C      -0.103   -0.762   1.461
  C      1.093   0.158   1.204
  O      0.003   -1.886   0.607
  O      0.625   1.490   1.120
  H      -0.151   -1.058   2.529
  H      -1.009   -0.162   1.243
  H      1.861   0.038   1.995
  H      1.547   -0.181   0.250
  H      -0.727   -2.487   0.801
  H      1.384   2.074   1.005
10
150
  C      -0.130   -0.738   1.403
  C      1.073   0.161   1.138
  O      0.054   -1.942   0.684
  O      0.644   1.505   1.221
  H      -0.256   -0.909   2.492
  H      -1.023   -0.181   1.054
  H      1.895   -0.067   1.847
  H      1.438   -0.093   0.121
  H      -0.667   -2.543   0.905
  H      1.415   2.079   1.139
10
165
  C      0.836   -0.770   0.745
  C      -0.070   0.300   1.334
  O      1.991   -0.127   0.248
  O      -1.350   -0.271   1.510
  H      1.067   -1.531   1.517
  H      0.263   -1.281   -0.056
  H      0.364   0.677   2.282
  H      -0.083   1.149   0.620
  H      2.606   -0.801   -0.063
  H      -1.918   0.377   1.942
10
180
  C      1.112   -0.143   0.840
  C      -0.306   -0.350   1.343
  O      1.433   1.220   1.019
  O      -0.627   -1.713   1.164
  H      1.786   -0.818   1.407
  H      1.155   -0.456   -0.223
  H      -0.349   -0.037   2.406
  H      -0.980   0.325   0.777
  H      2.334   1.367   0.708
  H      -1.527   -1.860   1.476
