10

  C      -0.894   0.451   0.442
  C      -2.146   -0.194   -0.121
  O      -0.853   0.236   1.847
  O      -2.929   -0.701   0.953
  H      -0.890   1.530   0.261
  H      0.000   0.000   0.000
  H      -1.897   -1.027   -0.785
  H      -2.745   0.543   -0.664
  H      -1.604   -0.339   2.064
  H      -2.489   -0.427   1.773
10

  C      -0.894   0.451   0.442
  C      -2.146   -0.194   -0.121
  O      -0.853   0.236   1.847
  O      -2.929   -0.701   0.953
  H      -0.890   1.530   0.261
  H      0.000   0.000   0.000
  H      -1.897   -1.027   -0.785
  H      -2.745   0.543   -0.664
  H      -0.309   -0.554   1.993
  H      -2.489   -0.427   1.773
10

  C      -0.894   0.451   0.442
  C      -2.146   -0.194   -0.121
  O      -0.853   0.236   1.847
  O      -2.929   -0.701   0.953
  H      -0.890   1.530   0.261
  H      0.000   0.000   0.000
  H      -1.897   -1.027   -0.785
  H      -2.745   0.543   -0.664
  H      -0.085   0.727   2.182
  H      -2.489   -0.427   1.773
10

  C      -0.894   0.451   0.442
  C      -2.146   -0.194   -0.121
  O      -0.853   0.236   1.847
  O      -2.929   -0.701   0.953
  H      -0.890   1.530   0.261
  H      0.000   0.000   0.000
  H      -1.897   -1.027   -0.785
  H      -2.745   0.543   -0.664
  H      -1.381   0.942   2.253
  H      -2.489   -0.427   1.773
10

  C      -0.894   0.451   0.442
  C      -2.146   -0.194   -0.121
  O      -0.853   0.236   1.847
  O      -2.929   -0.701   0.953
  H      -0.890   1.530   0.261
  H      0.000   0.000   0.000
  H      -1.897   -1.027   -0.785
  H      -2.745   0.543   -0.664
  H      -1.604   -0.339   2.064
  H      -3.582   -0.016   1.170
10

  C      -0.894   0.451   0.442
  C      -2.146   -0.194   -0.121
  O      -0.853   0.236   1.847
  O      -2.929   -0.701   0.953
  H      -0.890   1.530   0.261
  H      0.000   0.000   0.000
  H      -1.897   -1.027   -0.785
  H      -2.745   0.543   -0.664
  H      -0.309   -0.554   1.993
  H      -3.582   -0.016   1.170
10

  C      -0.894   0.451   0.442
  C      -2.146   -0.194   -0.121
  O      -0.853   0.236   1.847
  O      -2.929   -0.701   0.953
  H      -0.890   1.530   0.261
  H      0.000   0.000   0.000
  H      -1.897   -1.027   -0.785
  H      -2.745   0.543   -0.664
  H      -0.085   0.727   2.182
  H      -3.582   -0.016   1.170
10

  C      -0.894   0.451   0.442
  C      -2.146   -0.194   -0.121
  O      -0.853   0.236   1.847
  O      -2.929   -0.701   0.953
  H      -0.890   1.530   0.261
  H      0.000   0.000   0.000
  H      -1.897   -1.027   -0.785
  H      -2.745   0.543   -0.664
  H      -1.381   0.942   2.253
  H      -3.582   -0.016   1.170
10

  C      -0.894   0.451   0.442
  C      -2.146   -0.194   -0.121
  O      -0.853   0.236   1.847
  O      -2.929   -0.701   0.953
  H      -0.890   1.530   0.261
  H      0.000   0.000   0.000
  H      -1.897   -1.027   -0.785
  H      -2.745   0.543   -0.664
  H      -1.604   -0.339   2.064
  H      -3.677   -1.173   0.553
10

  C      -0.894   0.451   0.442
  C      -2.146   -0.194   -0.121
  O      -0.853   0.236   1.847
  O      -2.929   -0.701   0.953
  H      -0.890   1.530   0.261
  H      0.000   0.000   0.000
  H      -1.897   -1.027   -0.785
  H      -2.745   0.543   -0.664
  H      -0.309   -0.554   1.993
  H      -3.677   -1.173   0.553
10

  C      -0.894   0.451   0.442
  C      -2.146   -0.194   -0.121
  O      -0.853   0.236   1.847
  O      -2.929   -0.701   0.953
  H      -0.890   1.530   0.261
  H      0.000   0.000   0.000
  H      -1.897   -1.027   -0.785
  H      -2.745   0.543   -0.664
  H      -0.085   0.727   2.182
  H      -3.677   -1.173   0.553
10

  C      -0.894   0.451   0.442
  C      -2.146   -0.194   -0.121
  O      -0.853   0.236   1.847
  O      -2.929   -0.701   0.953
  H      -0.890   1.530   0.261
  H      0.000   0.000   0.000
  H      -1.897   -1.027   -0.785
  H      -2.745   0.543   -0.664
  H      -1.381   0.942   2.253
  H      -3.677   -1.173   0.553
10

  C      -0.894   0.451   0.442
  C      -2.146   -0.194   -0.121
  O      -0.853   0.236   1.847
  O      -2.929   -0.701   0.953
  H      -0.890   1.530   0.261
  H      0.000   0.000   0.000
  H      -1.897   -1.027   -0.785
  H      -2.745   0.543   -0.664
  H      -1.604   -0.339   2.064
  H      -2.584   -1.585   1.157
10

  C      -0.894   0.451   0.442
  C      -2.146   -0.194   -0.121
  O      -0.853   0.236   1.847
  O      -2.929   -0.701   0.953
  H      -0.890   1.530   0.261
  H      0.000   0.000   0.000
  H      -1.897   -1.027   -0.785
  H      -2.745   0.543   -0.664
  H      -0.309   -0.554   1.993
  H      -2.584   -1.585   1.157
10

  C      -0.894   0.451   0.442
  C      -2.146   -0.194   -0.121
  O      -0.853   0.236   1.847
  O      -2.929   -0.701   0.953
  H      -0.890   1.530   0.261
  H      0.000   0.000   0.000
  H      -1.897   -1.027   -0.785
  H      -2.745   0.543   -0.664
  H      -0.085   0.727   2.182
  H      -2.584   -1.585   1.157
10

  C      -0.894   0.451   0.442
  C      -2.146   -0.194   -0.121
  O      -0.853   0.236   1.847
  O      -2.929   -0.701   0.953
  H      -0.890   1.530   0.261
  H      0.000   0.000   0.000
  H      -1.897   -1.027   -0.785
  H      -2.745   0.543   -0.664
  H      -1.381   0.942   2.253
  H      -2.584   -1.585   1.157
10

  C      -0.894   0.451   0.442
  C      -2.146   -0.194   -0.121
  O      -0.853   0.236   1.847
  O      -3.174   0.786   -0.207
  H      -0.890   1.530   0.261
  H      0.000   0.000   0.000
  H      -2.499   -1.002   0.527
  H      -1.958   -0.582   -1.126
  H      -1.604   -0.339   2.064
  H      -2.773   1.634   0.045
10

  C      -0.894   0.451   0.442
  C      -2.146   -0.194   -0.121
  O      -0.853   0.236   1.847
  O      -3.174   0.786   -0.207
  H      -0.890   1.530   0.261
  H      0.000   0.000   0.000
  H      -2.499   -1.002   0.527
  H      -1.958   -0.582   -1.126
  H      -0.309   -0.554   1.993
  H      -2.773   1.634   0.045
10

  C      -0.894   0.451   0.442
  C      -2.146   -0.194   -0.121
  O      -0.853   0.236   1.847
  O      -3.174   0.786   -0.207
  H      -0.890   1.530   0.261
  H      0.000   0.000   0.000
  H      -2.499   -1.002   0.527
  H      -1.958   -0.582   -1.126
  H      -0.085   0.727   2.182
  H      -2.773   1.634   0.045
10

  C      -0.894   0.451   0.442
  C      -2.146   -0.194   -0.121
  O      -0.853   0.236   1.847
  O      -3.174   0.786   -0.207
  H      -0.890   1.530   0.261
  H      0.000   0.000   0.000
  H      -2.499   -1.002   0.527
  H      -1.958   -0.582   -1.126
  H      -1.381   0.942   2.253
  H      -2.773   1.634   0.045
10

  C      -0.894   0.451   0.442
  C      -2.146   -0.194   -0.121
  O      -0.853   0.236   1.847
  O      -3.174   0.786   -0.207
  H      -0.890   1.530   0.261
  H      0.000   0.000   0.000
  H      -2.499   -1.002   0.527
  H      -1.958   -0.582   -1.126
  H      -1.604   -0.339   2.064
  H      -3.150   1.136   -1.112
10

  C      -0.894   0.451   0.442
  C      -2.146   -0.194   -0.121
  O      -0.853   0.236   1.847
  O      -3.174   0.786   -0.207
  H      -0.890   1.530   0.261
  H      0.000   0.000   0.000
  H      -2.499   -1.002   0.527
  H      -1.958   -0.582   -1.126
  H      -0.309   -0.554   1.993
  H      -3.150   1.136   -1.112
10

  C      -0.894   0.451   0.442
  C      -2.146   -0.194   -0.121
  O      -0.853   0.236   1.847
  O      -3.174   0.786   -0.207
  H      -0.890   1.530   0.261
  H      0.000   0.000   0.000
  H      -2.499   -1.002   0.527
  H      -1.958   -0.582   -1.126
  H      -0.085   0.727   2.182
  H      -3.150   1.136   -1.112
10

  C      -0.894   0.451   0.442
  C      -2.146   -0.194   -0.121
  O      -0.853   0.236   1.847
  O      -3.174   0.786   -0.207
  H      -0.890   1.530   0.261
  H      0.000   0.000   0.000
  H      -2.499   -1.002   0.527
  H      -1.958   -0.582   -1.126
  H      -1.381   0.942   2.253
  H      -3.150   1.136   -1.112
10

  C      -0.894   0.451   0.442
  C      -2.146   -0.194   -0.121
  O      -0.853   0.236   1.847
  O      -3.174   0.786   -0.207
  H      -0.890   1.530   0.261
  H      0.000   0.000   0.000
  H      -2.499   -1.002   0.527
  H      -1.958   -0.582   -1.126
  H      -1.604   -0.339   2.064
  H      -3.977   0.323   -0.493
10

  C      -0.894   0.451   0.442
  C      -2.146   -0.194   -0.121
  O      -0.853   0.236   1.847
  O      -3.174   0.786   -0.207
  H      -0.890   1.530   0.261
  H      0.000   0.000   0.000
  H      -2.499   -1.002   0.527
  H      -1.958   -0.582   -1.126
  H      -0.309   -0.554   1.993
  H      -3.977   0.323   -0.493
10

  C      -0.894   0.451   0.442
  C      -2.146   -0.194   -0.121
  O      -0.853   0.236   1.847
  O      -3.174   0.786   -0.207
  H      -0.890   1.530   0.261
  H      0.000   0.000   0.000
  H      -2.499   -1.002   0.527
  H      -1.958   -0.582   -1.126
  H      -0.085   0.727   2.182
  H      -3.977   0.323   -0.493
10

  C      -0.894   0.451   0.442
  C      -2.146   -0.194   -0.121
  O      -0.853   0.236   1.847
  O      -3.174   0.786   -0.207
  H      -0.890   1.530   0.261
  H      0.000   0.000   0.000
  H      -2.499   -1.002   0.527
  H      -1.958   -0.582   -1.126
  H      -1.381   0.942   2.253
  H      -3.977   0.323   -0.493
10

  C      -0.894   0.451   0.442
  C      -2.146   -0.194   -0.121
  O      -0.853   0.236   1.847
  O      -3.174   0.786   -0.207
  H      -0.890   1.530   0.261
  H      0.000   0.000   0.000
  H      -2.499   -1.002   0.527
  H      -1.958   -0.582   -1.126
  H      -1.604   -0.339   2.064
  H      -3.600   0.821   0.664
10

  C      -0.894   0.451   0.442
  C      -2.146   -0.194   -0.121
  O      -0.853   0.236   1.847
  O      -3.174   0.786   -0.207
  H      -0.890   1.530   0.261
  H      0.000   0.000   0.000
  H      -2.499   -1.002   0.527
  H      -1.958   -0.582   -1.126
  H      -0.309   -0.554   1.993
  H      -3.600   0.821   0.664
10

  C      -0.894   0.451   0.442
  C      -2.146   -0.194   -0.121
  O      -0.853   0.236   1.847
  O      -3.174   0.786   -0.207
  H      -0.890   1.530   0.261
  H      0.000   0.000   0.000
  H      -2.499   -1.002   0.527
  H      -1.958   -0.582   -1.126
  H      -0.085   0.727   2.182
  H      -3.600   0.821   0.664
10

  C      -0.894   0.451   0.442
  C      -2.146   -0.194   -0.121
  O      -0.853   0.236   1.847
  O      -3.174   0.786   -0.207
  H      -0.890   1.530   0.261
  H      0.000   0.000   0.000
  H      -2.499   -1.002   0.527
  H      -1.958   -0.582   -1.126
  H      -1.381   0.942   2.253
  H      -3.600   0.821   0.664
10

  C      -0.894   0.451   0.442
  C      -2.146   -0.194   -0.121
  O      -0.853   0.236   1.847
  O      -2.129   -0.081   -1.539
  H      -0.890   1.530   0.261
  H      0.000   0.000   0.000
  H      -3.047   0.305   0.250
  H      -2.179   -1.256   0.138
  H      -1.604   -0.339   2.064
  H      -1.275   0.312   -1.777
10

  C      -0.894   0.451   0.442
  C      -2.146   -0.194   -0.121
  O      -0.853   0.236   1.847
  O      -2.129   -0.081   -1.539
  H      -0.890   1.530   0.261
  H      0.000   0.000   0.000
  H      -3.047   0.305   0.250
  H      -2.179   -1.256   0.138
  H      -0.309   -0.554   1.993
  H      -1.275   0.312   -1.777
10

  C      -0.894   0.451   0.442
  C      -2.146   -0.194   -0.121
  O      -0.853   0.236   1.847
  O      -2.129   -0.081   -1.539
  H      -0.890   1.530   0.261
  H      0.000   0.000   0.000
  H      -3.047   0.305   0.250
  H      -2.179   -1.256   0.138
  H      -0.085   0.727   2.182
  H      -1.275   0.312   -1.777
10

  C      -0.894   0.451   0.442
  C      -2.146   -0.194   -0.121
  O      -0.853   0.236   1.847
  O      -2.129   -0.081   -1.539
  H      -0.890   1.530   0.261
  H      0.000   0.000   0.000
  H      -3.047   0.305   0.250
  H      -2.179   -1.256   0.138
  H      -1.381   0.942   2.253
  H      -1.275   0.312   -1.777
10

  C      -0.894   0.451   0.442
  C      -2.146   -0.194   -0.121
  O      -0.853   0.236   1.847
  O      -2.129   -0.081   -1.539
  H      -0.890   1.530   0.261
  H      0.000   0.000   0.000
  H      -3.047   0.305   0.250
  H      -2.179   -1.256   0.138
  H      -1.604   -0.339   2.064
  H      -1.754   -0.908   -1.880
10

  C      -0.894   0.451   0.442
  C      -2.146   -0.194   -0.121
  O      -0.853   0.236   1.847
  O      -2.129   -0.081   -1.539
  H      -0.890   1.530   0.261
  H      0.000   0.000   0.000
  H      -3.047   0.305   0.250
  H      -2.179   -1.256   0.138
  H      -0.309   -0.554   1.993
  H      -1.754   -0.908   -1.880
10

  C      -0.894   0.451   0.442
  C      -2.146   -0.194   -0.121
  O      -0.853   0.236   1.847
  O      -2.129   -0.081   -1.539
  H      -0.890   1.530   0.261
  H      0.000   0.000   0.000
  H      -3.047   0.305   0.250
  H      -2.179   -1.256   0.138
  H      -0.085   0.727   2.182
  H      -1.754   -0.908   -1.880
10

  C      -0.894   0.451   0.442
  C      -2.146   -0.194   -0.121
  O      -0.853   0.236   1.847
  O      -2.129   -0.081   -1.539
  H      -0.890   1.530   0.261
  H      0.000   0.000   0.000
  H      -3.047   0.305   0.250
  H      -2.179   -1.256   0.138
  H      -1.381   0.942   2.253
  H      -1.754   -0.908   -1.880
10

  C      -0.894   0.451   0.442
  C      -2.146   -0.194   -0.121
  O      -0.853   0.236   1.847
  O      -2.129   -0.081   -1.539
  H      -0.890   1.530   0.261
  H      0.000   0.000   0.000
  H      -3.047   0.305   0.250
  H      -2.179   -1.256   0.138
  H      -1.604   -0.339   2.064
  H      -2.978   -0.429   -1.856
10

  C      -0.894   0.451   0.442
  C      -2.146   -0.194   -0.121
  O      -0.853   0.236   1.847
  O      -2.129   -0.081   -1.539
  H      -0.890   1.530   0.261
  H      0.000   0.000   0.000
  H      -3.047   0.305   0.250
  H      -2.179   -1.256   0.138
  H      -0.309   -0.554   1.993
  H      -2.978   -0.429   -1.856
10

  C      -0.894   0.451   0.442
  C      -2.146   -0.194   -0.121
  O      -0.853   0.236   1.847
  O      -2.129   -0.081   -1.539
  H      -0.890   1.530   0.261
  H      0.000   0.000   0.000
  H      -3.047   0.305   0.250
  H      -2.179   -1.256   0.138
  H      -0.085   0.727   2.182
  H      -2.978   -0.429   -1.856
10

  C      -0.894   0.451   0.442
  C      -2.146   -0.194   -0.121
  O      -0.853   0.236   1.847
  O      -2.129   -0.081   -1.539
  H      -0.890   1.530   0.261
  H      0.000   0.000   0.000
  H      -3.047   0.305   0.250
  H      -2.179   -1.256   0.138
  H      -1.381   0.942   2.253
  H      -2.978   -0.429   -1.856
10

  C      -0.894   0.451   0.442
  C      -2.146   -0.194   -0.121
  O      -0.853   0.236   1.847
  O      -2.129   -0.081   -1.539
  H      -0.890   1.530   0.261
  H      0.000   0.000   0.000
  H      -3.047   0.305   0.250
  H      -2.179   -1.256   0.138
  H      -1.604   -0.339   2.064
  H      -2.499   0.791   -1.753
10

  C      -0.894   0.451   0.442
  C      -2.146   -0.194   -0.121
  O      -0.853   0.236   1.847
  O      -2.129   -0.081   -1.539
  H      -0.890   1.530   0.261
  H      0.000   0.000   0.000
  H      -3.047   0.305   0.250
  H      -2.179   -1.256   0.138
  H      -0.309   -0.554   1.993
  H      -2.499   0.791   -1.753
10

  C      -0.894   0.451   0.442
  C      -2.146   -0.194   -0.121
  O      -0.853   0.236   1.847
  O      -2.129   -0.081   -1.539
  H      -0.890   1.530   0.261
  H      0.000   0.000   0.000
  H      -3.047   0.305   0.250
  H      -2.179   -1.256   0.138
  H      -0.085   0.727   2.182
  H      -2.499   0.791   -1.753
10

  C      -0.894   0.451   0.442
  C      -2.146   -0.194   -0.121
  O      -0.853   0.236   1.847
  O      -2.129   -0.081   -1.539
  H      -0.890   1.530   0.261
  H      0.000   0.000   0.000
  H      -3.047   0.305   0.250
  H      -2.179   -1.256   0.138
  H      -1.381   0.942   2.253
  H      -2.499   0.791   -1.753
10

  C      -0.894   0.451   0.442
  C      -2.146   -0.194   -0.121
  O      -0.853   0.236   1.847
  O      -1.885   -1.568   -0.379
  H      -0.890   1.530   0.261
  H      0.000   0.000   0.000
  H      -2.445   0.279   -1.062
  H      -2.966   -0.130   0.600
  H      -1.604   -0.339   2.064
  H      -0.990   -1.749   -0.050
10

  C      -0.894   0.451   0.442
  C      -2.146   -0.194   -0.121
  O      -0.853   0.236   1.847
  O      -1.885   -1.568   -0.379
  H      -0.890   1.530   0.261
  H      0.000   0.000   0.000
  H      -2.445   0.279   -1.062
  H      -2.966   -0.130   0.600
  H      -0.309   -0.554   1.993
  H      -0.990   -1.749   -0.050
10

  C      -0.894   0.451   0.442
  C      -2.146   -0.194   -0.121
  O      -0.853   0.236   1.847
  O      -1.885   -1.568   -0.379
  H      -0.890   1.530   0.261
  H      0.000   0.000   0.000
  H      -2.445   0.279   -1.062
  H      -2.966   -0.130   0.600
  H      -0.085   0.727   2.182
  H      -0.990   -1.749   -0.050
10

  C      -0.894   0.451   0.442
  C      -2.146   -0.194   -0.121
  O      -0.853   0.236   1.847
  O      -1.885   -1.568   -0.379
  H      -0.890   1.530   0.261
  H      0.000   0.000   0.000
  H      -2.445   0.279   -1.062
  H      -2.966   -0.130   0.600
  H      -1.381   0.942   2.253
  H      -0.990   -1.749   -0.050
10

  C      -0.894   0.451   0.442
  C      -2.146   -0.194   -0.121
  O      -0.853   0.236   1.847
  O      -1.885   -1.568   -0.379
  H      -0.890   1.530   0.261
  H      0.000   0.000   0.000
  H      -2.445   0.279   -1.062
  H      -2.966   -0.130   0.600
  H      -1.604   -0.339   2.064
  H      -2.185   -2.060   0.401
10

  C      -0.894   0.451   0.442
  C      -2.146   -0.194   -0.121
  O      -0.853   0.236   1.847
  O      -1.885   -1.568   -0.379
  H      -0.890   1.530   0.261
  H      0.000   0.000   0.000
  H      -2.445   0.279   -1.062
  H      -2.966   -0.130   0.600
  H      -0.309   -0.554   1.993
  H      -2.185   -2.060   0.401
10

  C      -0.894   0.451   0.442
  C      -2.146   -0.194   -0.121
  O      -0.853   0.236   1.847
  O      -1.885   -1.568   -0.379
  H      -0.890   1.530   0.261
  H      0.000   0.000   0.000
  H      -2.445   0.279   -1.062
  H      -2.966   -0.130   0.600
  H      -0.085   0.727   2.182
  H      -2.185   -2.060   0.401
10

  C      -0.894   0.451   0.442
  C      -2.146   -0.194   -0.121
  O      -0.853   0.236   1.847
  O      -1.885   -1.568   -0.379
  H      -0.890   1.530   0.261
  H      0.000   0.000   0.000
  H      -2.445   0.279   -1.062
  H      -2.966   -0.130   0.600
  H      -1.381   0.942   2.253
  H      -2.185   -2.060   0.401
10

  C      -0.894   0.451   0.442
  C      -2.146   -0.194   -0.121
  O      -0.853   0.236   1.847
  O      -1.885   -1.568   -0.379
  H      -0.890   1.530   0.261
  H      0.000   0.000   0.000
  H      -2.445   0.279   -1.062
  H      -2.966   -0.130   0.600
  H      -1.604   -0.339   2.064
  H      -2.678   -1.926   -0.810
10

  C      -0.894   0.451   0.442
  C      -2.146   -0.194   -0.121
  O      -0.853   0.236   1.847
  O      -1.885   -1.568   -0.379
  H      -0.890   1.530   0.261
  H      0.000   0.000   0.000
  H      -2.445   0.279   -1.062
  H      -2.966   -0.130   0.600
  H      -0.309   -0.554   1.993
  H      -2.678   -1.926   -0.810
10

  C      -0.894   0.451   0.442
  C      -2.146   -0.194   -0.121
  O      -0.853   0.236   1.847
  O      -1.885   -1.568   -0.379
  H      -0.890   1.530   0.261
  H      0.000   0.000   0.000
  H      -2.445   0.279   -1.062
  H      -2.966   -0.130   0.600
  H      -0.085   0.727   2.182
  H      -2.678   -1.926   -0.810
10

  C      -0.894   0.451   0.442
  C      -2.146   -0.194   -0.121
  O      -0.853   0.236   1.847
  O      -1.885   -1.568   -0.379
  H      -0.890   1.530   0.261
  H      0.000   0.000   0.000
  H      -2.445   0.279   -1.062
  H      -2.966   -0.130   0.600
  H      -1.381   0.942   2.253
  H      -2.678   -1.926   -0.810
10

  C      -0.894   0.451   0.442
  C      -2.146   -0.194   -0.121
  O      -0.853   0.236   1.847
  O      -1.885   -1.568   -0.379
  H      -0.890   1.530   0.261
  H      0.000   0.000   0.000
  H      -2.445   0.279   -1.062
  H      -2.966   -0.130   0.600
  H      -1.604   -0.339   2.064
  H      -1.483   -1.614   -1.261
10

  C      -0.894   0.451   0.442
  C      -2.146   -0.194   -0.121
  O      -0.853   0.236   1.847
  O      -1.885   -1.568   -0.379
  H      -0.890   1.530   0.261
  H      0.000   0.000   0.000
  H      -2.445   0.279   -1.062
  H      -2.966   -0.130   0.600
  H      -0.309   -0.554   1.993
  H      -1.483   -1.614   -1.261
10

  C      -0.894   0.451   0.442
  C      -2.146   -0.194   -0.121
  O      -0.853   0.236   1.847
  O      -1.885   -1.568   -0.379
  H      -0.890   1.530   0.261
  H      0.000   0.000   0.000
  H      -2.445   0.279   -1.062
  H      -2.966   -0.130   0.600
  H      -0.085   0.727   2.182
  H      -1.483   -1.614   -1.261
10

  C      -0.894   0.451   0.442
  C      -2.146   -0.194   -0.121
  O      -0.853   0.236   1.847
  O      -1.885   -1.568   -0.379
  H      -0.890   1.530   0.261
  H      0.000   0.000   0.000
  H      -2.445   0.279   -1.062
  H      -2.966   -0.130   0.600
  H      -1.381   0.942   2.253
  H      -1.483   -1.614   -1.261
