13   
Generated by ForceBalance from scan.xyz: Frame 1 of 24
C        1.5036926253   -0.3962572469    1.5523930598
C        1.7220793588   -0.9072602979    2.8245735047
C       -0.8300703813   -1.0078191576    1.7987098506
C        0.2030193593   -0.4556268475    1.0416911212
C        0.6144591494   -1.4483166442    3.4884936641
N       -0.6156962647   -1.5117610135    3.0209720606
N       -0.0826971516    0.0934551030   -0.2872680049
O       -1.2662225574    0.2810001626   -0.5849807255
O        0.8822852443    0.3471127906   -1.0160387263
F        0.8027433741   -1.9521331487    4.7175450510
H        2.3027986378    0.0360990262    0.9607641408
H        2.6977382287   -0.8964085974    3.2977234664
H       -1.8422614246   -1.0468566137    1.4080312141
13   
Generated by ForceBalance from scan.xyz: Frame 2 of 24
C        1.4942192775   -0.3790420237    1.5641030906
C        1.7106829183   -0.8838852639    2.8396129002
C       -0.8266252697   -1.0471205777    1.7859744705
C        0.2023040761   -0.4750715305    1.0394512155
C        0.6112149769   -1.4584683440    3.4884302740
N       -0.6113762754   -1.5539098716    3.0066676390
N       -0.0894434175    0.0920831058   -0.2794792021
O       -1.2359491985    0.5050955200   -0.4787477178
O        0.8422550998    0.1491605180   -1.0889970472
F        0.7988231938   -1.9593633945    4.7191633431
H        2.2896357145    0.0736246659    0.9820156880
H        2.6787905753   -0.8427522669    3.3264036057
H       -1.8353542413   -1.1041435376    1.3872233341
13   
Generated by ForceBalance from scan.xyz: Frame 3 of 24
C        1.4927018783   -0.3557831758    1.5652141083
C        1.7074681521   -0.8561334175    2.8434731035
C       -0.8134951977   -1.0737502725    1.7633977794
C        0.2110375974   -0.4852986116    1.0257307777
C        0.6161839119   -1.4597648805    3.4788934673
N       -0.5987118527   -1.5808826636    2.9840581178
N       -0.0829744773    0.0910839402   -0.2890807219
O       -1.1370455992    0.7228312864   -0.4059260092
O        0.7694572835   -0.0562862238   -1.1708133572
F        0.8030374325   -1.9603176277    4.7105447114
H        2.2855445677    0.1152743143    0.9935028295
H        2.6684176847   -0.7895238341    3.3414759213
H       -1.8192818658   -1.1470202258    1.3582977150
13   
Generated by ForceBalance from scan.xyz: Frame 4 of 24
C        1.4871078319   -0.3275257114    1.5761622989
C        1.7042765216   -0.8337682278    2.8524215872
C       -0.8001043843   -1.1076666976    1.7485501417
C        0.2150498809   -0.4887765956    1.0251784810
C        0.6240522976   -1.4701975575    3.4737527561
N       -0.5824824915   -1.6182941175    2.9675079166
N       -0.0861202176    0.0991977741   -0.2855891697
O       -0.9988844696    0.9278749647   -0.3319756560
O        0.6313332704   -0.2392134786   -1.2314274022
F        0.8135458611   -1.9758346901    4.7037332403
H        2.2743255232    0.1696499551    1.0181794325
H        2.6592574774   -0.7461911806    3.3585763714
H       -1.8017799239   -1.2033145407    1.3367033880
13   
Generated by ForceBalance from scan.xyz: Frame 5 of 24
C        1.4803099289   -0.2855207154    1.5902406508
C        1.7003344810   -0.8097151594    2.8592234484
C       -0.7844615470   -1.1355613476    1.7272766072
C        0.2174915300   -0.4718273474    1.0279936761
C        0.6326782743   -1.4825080137    3.4630387370
N       -0.5642205297   -1.6538736506    2.9432854268
N       -0.0819645642    0.1098335862   -0.2900139626
O       -0.7990125493    1.1124669838   -0.3090359760
O        0.4377315842   -0.4274670586   -1.2710507790
F        0.8260266911   -2.0027799491    4.6872057990
H        2.2601219574    0.2434461061    1.0507780534
H        2.6502597962   -0.7087765093    3.3722928297
H       -1.7781605900   -1.2607651339    1.3033325868
13   
Generated by ForceBalance from scan.xyz: Frame 6 of 24
C        1.4789575324   -0.2340778952    1.5968154845
C        1.7079032732   -0.7808246670    2.8550652126
C       -0.7564763495   -1.1597358464    1.6954187336
C        0.2232774720   -0.4364661474    1.0254073236
C        0.6541577593   -1.4897859808    3.4411696402
N       -0.5327952636   -1.6853694243    2.9079489077
N       -0.0728878293    0.1203420889   -0.3062620778
O       -0.5472924062    1.2573597052   -0.3447727593
O        0.1752465099   -0.5943553236   -1.2794260527
F        0.8534022345   -2.0271701932    4.6574211932
H        2.2471871729    0.3298914660    1.0763864524
H        2.6547986902   -0.6714324408    3.3720097835
H       -1.7377483639   -1.3214984289    1.2549693228
13   
Generated by ForceBalance from scan.xyz: Frame 7 of 24
C        1.4599907439   -0.1964545270    1.6220846494
C        1.6936698089   -0.7631939181    2.8704628186
C       -0.7470346835   -1.1908132474    1.6777313575
C        0.2125842177   -0.4138901601    1.0377279982
C        0.6500622627   -1.5040385907    3.4350427601
N       -0.5266134444   -1.7223491650    2.8875514415
N       -0.0736632482    0.1243458104   -0.3015336167
O       -0.2825112117    1.3370727906   -0.3858695553
O       -0.1224492453   -0.6844998847   -1.2306023835
F        0.8500916449   -2.0553981719    4.6443723764
H        2.2158603178    0.3994579158    1.1196603143
H        2.6357612989   -0.6470372012    3.3946977711
H       -1.7120362567   -1.3850281227    1.2154107437
13   
Generated by ForceBalance from scan.xyz: Frame 8 of 24
C        1.4549696585   -0.1612087194    1.6397249023
C        1.6941361144   -0.7346978319    2.8832402206
C       -0.7198692287   -1.2290356862    1.6601739420
C        0.2191385088   -0.4091827232    1.0408799510
C        0.6663736198   -1.5101641849    3.4311608869
N       -0.4983688972   -1.7593153218    2.8698199532
N       -0.0596249920    0.1149149184   -0.3013613960
O       -0.0116754756    1.3399416708   -0.4476828741
O       -0.3729155140   -0.7040824818   -1.1690208283
F        0.8709649682   -2.0666670120    4.6365282534
H        2.1939431876    0.4645667585    1.1490719985
H        2.6285433882   -0.5998099373    3.4166287605
H       -1.6692669280   -1.4532461978    1.1802638234
13   
Generated by ForceBalance from scan.xyz: Frame 9 of 24
C        1.4456579319   -0.1359873339    1.6433860504
C        1.6872715933   -0.7083332442    2.8860161085
C       -0.7019922591   -1.2593319691    1.6370233479
C        0.2226462961   -0.4135468512    1.0286319906
C        0.6733965606   -1.5119752826    3.4202992538
N       -0.4797839469   -1.7883879886    2.8469460710
N       -0.0538401719    0.1152231852   -0.3095084887
O        0.2360328020    1.2982210810   -0.5166588206
O       -0.6002287650   -0.6430060790   -1.1156917938
F        0.8799629722   -2.0676430525    4.6248447026
H        2.1700184446    0.5119649836    1.1606314890
H        2.6122732169   -0.5522169856    3.4299330957
H       -1.6404914734   -1.5025212127    1.1461957363
13   
Generated by ForceBalance from scan.xyz: Frame 10 of 24
C        1.4312865906   -0.1001892243    1.6391596725
C        1.6834326841   -0.6667533678    2.8816938331
C       -0.6863870199   -1.2798200991    1.6233346078
C        0.2204220752   -0.4133082771    1.0150850118
C        0.6910712576   -1.5016529761    3.4091917969
N       -0.4526266679   -1.8081311009    2.8315220008
N       -0.0703310153    0.1226669540   -0.3169953590
O        0.4273082367    1.2162553737   -0.6061290092
O       -0.8186400417   -0.5371301334   -1.0443980414
F        0.9092188719   -2.0552586967    4.6119980366
H        2.1374884527    0.5683570640    1.1586959765
H        2.6001317957   -0.4837322794    3.4312982930
H       -1.6187068967   -1.5409212592    1.1311763806
13   
Generated by ForceBalance from scan.xyz: Frame 11 of 24
C        1.4180149531   -0.0867477316    1.6549807418
C        1.6677449673   -0.6512473704    2.8984321832
C       -0.6743977794   -1.3119084769    1.6125342005
C        0.2227870149   -0.4277765160    1.0136969911
C        0.6914944775   -1.5149969838    3.4096043168
N       -0.4380390731   -1.8461870448    2.8177630284
N       -0.0759842873    0.1258544411   -0.3104356491
O        0.5999248269    1.0887681041   -0.6882378323
O       -0.9933583271   -0.3939669636   -0.9528066840
F        0.9096521832   -2.0691415230    4.6117663206
H        2.1135048281    0.5987528533    1.1838400704
H        2.5709814403   -0.4446216910    3.4617799095
H       -1.5984667126   -1.5853630200    1.1125871123
13   
Generated by ForceBalance from scan.xyz: Frame 12 of 24
C        1.4101987707   -0.0540061430    1.6516228439
C        1.6646888802   -0.6127630260    2.8966694682
C       -0.6464584879   -1.3368776460    1.5892576887
C        0.2324575658   -0.4296962061    0.9969083322
C        0.7131726049   -1.5114080154    3.3939813448
N       -0.4000325385   -1.8754204439    2.7905124291
N       -0.0806628152    0.1335589989   -0.3207465254
O        0.7279353044    0.9327055834   -0.8045642880
O       -1.1307040108   -0.2263138420   -0.8614980763
F        0.9379243481   -2.0639714532    4.5954977368
H        2.0902623741    0.6512460951    1.1875751339
H        2.5533224069   -0.3760679908    3.4713353962
H       -1.5610862420   -1.6303720163    1.0837974969
13   
Generated by ForceBalance from scan.xyz: Frame 13 of 24
C        1.3917324566   -0.0457676879    1.6787437366
C        1.6388076216   -0.6061287552    2.9245946888
C       -0.6330099043   -1.3764402521    1.5751124594
C        0.2358949884   -0.4482138927    1.0018454795
C        0.7057049279   -1.5371545508    3.3967540365
N       -0.3870980503   -1.9256150202    2.7717031819
N       -0.0794526986    0.1312641699   -0.3072987567
O        0.8242412638    0.7390133973   -0.8910522837
O       -1.2199274176   -0.0406960820   -0.7479537740
F        0.9260975862   -2.0947837577    4.5968951451
H        2.0624461481    0.6783638552    1.2300044294
H        2.5082849833   -0.3468667550    3.5184657255
H       -1.5355799529   -1.6834153376    1.0557270013
13   
Generated by ForceBalance from scan.xyz: Frame 14 of 24
C        1.3821571047   -0.0235853766    1.6835797688
C        1.6286053113   -0.5812664851    2.9312650390
C       -0.6112059862   -1.3970424515    1.5553593139
C        0.2458535228   -0.4529605098    0.9920911017
C        0.7151000157   -1.5391194380    3.3874648793
N       -0.3610300557   -1.9509502952    2.7487039006
N       -0.0815925210    0.1402270948   -0.3068132156
O        0.8614030679    0.5394119129   -0.9986149121
O       -1.2715193546    0.1690045920   -0.6349280069
F        0.9361566694   -2.0972609887    4.5876409348
H        2.0421281061    0.7170446301    1.2449158541
H        2.4820331685   -0.2995928812    3.5380762155
H       -1.5057607602   -1.7170270573    1.0290556973
13   
Generated by ForceBalance from scan.xyz: Frame 15 of 24
C        1.3652863863   -0.0106716056    1.7160533081
C        1.6019574710   -0.5753115505    2.9631520067
C       -0.5986012811   -1.4205400217    1.5435407118
C        0.2526212574   -0.4602835945    1.0015297090
C        0.7028962151   -1.5579725592    3.3936260131
N       -0.3543473228   -1.9839701833    2.7335309408
N       -0.0751410385    0.1484377575   -0.2902490283
O        0.8584118049    0.3278042913   -1.0793802819
O       -1.2639776192    0.3919211388   -0.5155641704
F        0.9170499030   -2.1254716474    4.5913110207
H        2.0187776259    0.7477811617    1.2973760118
H        2.4376110454   -0.2798837262    3.5878531706
H       -1.4827128793   -1.7485306257    1.0035385707
13   
Generated by ForceBalance from scan.xyz: Frame 16 of 24
C        1.3501449654    0.0022356564    1.7345025244
C        1.5850576320   -0.5646234398    2.9818628323
C       -0.5759724079   -1.4534010720    1.5300683416
C        0.2591815440   -0.4716170630    1.0046751530
C        0.7051307761   -1.5705974313    3.3961167328
N       -0.3331098252   -2.0169908175    2.7203988738
N       -0.0749610812    0.1388297553   -0.2874946461
O        0.7872903897    0.0941908178   -1.1700644553
O       -1.2111975211    0.6029758551   -0.4110901206
F        0.9179758887   -2.1399713882    4.5940206239
H        1.9917310826    0.7798591571    1.3319031071
H        2.4056268519   -0.2522390646    3.6181782195
H       -1.4472754461   -1.7993767353    0.9795485749
13   
Generated by ForceBalance from scan.xyz: Frame 17 of 24
C        1.3194252351    0.0227191932    1.7491774282
C        1.5584570155   -0.5523697643    2.9927141941
C       -0.5548221557   -1.4905110221    1.5039404336
C        0.2509167942   -0.4736553417    1.0030706248
C        0.7026468775   -1.5860300106    3.3874968628
N       -0.3133783495   -2.0548269994    2.6947526227
N       -0.0755409111    0.1272794089   -0.2998336091
O        0.6681536231   -0.1452043961   -1.2454063112
O       -1.0904718953    0.8248549028   -0.3553654488
F        0.9185389277   -2.1621242826    4.5824837345
H        1.9430246895    0.8248691429    1.3663461320
H        2.3654484426   -0.2255654852    3.6391001106
H       -1.4048809599   -1.8639448650    0.9376938651
13   
Generated by ForceBalance from scan.xyz: Frame 18 of 24
C        1.2910947601    0.0588454773    1.7666721045
C        1.5464936306   -0.5291589604    3.0009987405
C       -0.5294795993   -1.5136689718    1.4901813924
C        0.2347633540   -0.4543713910    1.0150256117
C        0.7178824813   -1.5891493503    3.3835523986
N       -0.2808265238   -2.0782429758    2.6801311129
N       -0.0800828161    0.1315613293   -0.2997543225
O        0.4869959732   -0.3553093137   -1.2799227806
O       -0.8875315897    1.0627354691   -0.3185140652
F        0.9465639882   -2.1724307667    4.5731889310
H        1.8901272782    0.8866295652    1.3992238091
H        2.3479592698   -0.1930130350    3.6494334452
H       -1.3550210404   -1.9182469026    0.9089280786
13   
Generated by ForceBalance from scan.xyz: Frame 19 of 24
C        1.2512512775    0.0716287743    1.7973432351
C        1.5230554393   -0.5332989872    3.0195105161
C       -0.5129889464   -1.5588434364    1.4818248938
C        0.2068449545   -0.4552269167    1.0376194746
C        0.7211658923   -1.6204773483    3.3830336728
N       -0.2592996034   -2.1293071064    2.6675923485
N       -0.0856850436    0.1156347261   -0.2866502331
O        0.2626329211   -0.5428586491   -1.2689202171
O       -0.6225511442    1.2257342303   -0.3123989170
F        0.9626551124   -2.2158112155    4.5636742227
H        1.8226206763    0.9256010858    1.4463434754
H        2.3182710060   -0.1911354885    3.6724601854
H       -1.3112489742   -1.9887775975    0.8811754384
13   
Generated by ForceBalance from scan.xyz: Frame 20 of 24
C        1.2180259682    0.0920297224    1.8194507473
C        1.5045930517   -0.5224156102    3.0329654128
C       -0.4917390608   -1.5884729721    1.4697441427
C        0.1919130930   -0.4527030282    1.0460973187
C        0.7301978589   -1.6356953729    3.3777836761
N       -0.2325392813   -2.1639253524    2.6511110250
N       -0.0938094082    0.1111823102   -0.2786385992
O        0.0115957021   -0.6476799978   -1.2455998524
O       -0.3650478586    1.3143473479   -0.3305549111
F        0.9828645514   -2.2398294853    4.5506477371
H        1.7620969989    0.9683202856    1.4813059723
H        2.2897346230   -0.1700220565    3.6926794724
H       -1.2673783647   -2.0365596348    0.8535280886
13   
Generated by ForceBalance from scan.xyz: Frame 21 of 24
C        1.1955860641    0.1074814421    1.8338495318
C        1.4860575690   -0.5109052749    3.0436615405
C       -0.4676120134   -1.6130529262    1.4506711061
C        0.1925773107   -0.4565161401    1.0424199778
C        0.7358789126   -1.6463899078    3.3706747758
N       -0.2066252031   -2.1922239815    2.6295576935
N       -0.0995861953    0.1169814181   -0.2740643561
O       -0.2435011141   -0.6703962858   -1.2138242023
O       -0.1318808305    1.3490830871   -0.3558757130
F        0.9915911088   -2.2543048364    4.5400689173
H        1.7176212172    1.0007835324    1.5069867945
H        2.2554986226   -0.1456923078    3.7148153908
H       -1.2261307056   -2.0718664406    0.8220050465
13   
Generated by ForceBalance from scan.xyz: Frame 22 of 24
C        1.1788462852    0.1126915601    1.8492477252
C        1.4657466074   -0.5019769741    3.0610729191
C       -0.4454072490   -1.6415183202    1.4412980744
C        0.2013027885   -0.4735089555    1.0403565632
C        0.7382583253   -1.6565546783    3.3735657597
N       -0.1839089628   -2.2204200032    2.6201751260
N       -0.0981886177    0.1057186688   -0.2715732554
O       -0.4866542678   -0.6632115914   -1.1562220952
O        0.0922658888    1.3185479919   -0.4108984897
F        0.9937257506   -2.2632580932    4.5429435549
H        1.6843294221    1.0174250589    1.5293027178
H        2.2155044093   -0.1203904610    3.7452841060
H       -1.1908560155   -2.1090504119    0.8045027765
13   
Generated by ForceBalance from scan.xyz: Frame 23 of 24
C        1.1662395164    0.1299031531    1.8575001664
C        1.4482205721   -0.4802541736    3.0721835670
C       -0.4129636082   -1.6581760395    1.4215849823
C        0.2169056306   -0.4772791246    1.0291354972
C        0.7474542468   -1.6556807213    3.3682490866
N       -0.1491696834   -2.2391710198    2.5991657725
N       -0.0969268322    0.1156395575   -0.2744039925
O       -0.7123751140   -0.5825675461   -1.0857418149
O        0.2897991379    1.2709192044   -0.4803467690
F        1.0004208186   -2.2603498528    4.5388186097
H        1.6547063477    1.0466102341    1.5467335647
H        2.1739436309   -0.0796986283    3.7713120895
H       -1.1436078173   -2.1362045582    0.7763467606
13   
Generated by ForceBalance from scan.xyz: Frame 24 of 24
C        1.1486586160    0.1367832585    1.8704538003
C        1.4238800494   -0.4715404011    3.0874720567
C       -0.3867815231   -1.6811243558    1.4030725663
C        0.2269844098   -0.4873869292    1.0230921954
C        0.7495669013   -1.6670200636    3.3641483247
N       -0.1205446791   -2.2672474316    2.5776779159
N       -0.0967508756    0.1173416077   -0.2734672275
O       -0.9154547254   -0.4678766918   -0.9888437276
O        0.4717917285    1.1746650091   -0.5656452859
F        0.9996661117   -2.2732913367    4.5343667600
H        1.6228493102    1.0643875439    1.5706417181
H        2.1248119806   -0.0551163299    3.8024722591
H       -1.1023980791   -2.1678036166    0.7479281406
