17   
Generated by ForceBalance from scan.xyz: Frame 1 of 24
C        1.5271035269   -0.2073598860    1.7524427572
C        1.7877216225   -0.8328867883    2.9603752827
C       -0.6446841892   -1.2068231271    1.7814776196
C        0.2839351106   -0.4050378544    1.1158012170
C        0.7689045635   -1.6198501096    3.5344015098
C        0.0037725928   -2.9995870761    5.3125136114
N       -0.4186929917   -1.7944755720    2.9717011628
N       -0.0189469814    0.2819537925   -0.0904353597
O        1.0488915426   -2.2109315315    4.7283297947
H        2.2691149025    0.4408851352    1.2929137055
H        2.7327990414   -0.7124851087    3.4801923957
H       -1.6284179562   -1.3808416236    1.3434559459
H        0.4175324219   -3.3759941371    6.2492446707
H       -0.2737381185   -3.8301373310    4.6568443109
H       -0.8850356470   -2.3914748068    5.5047245569
H       -1.0083817574    0.2495398280   -0.3152526045
H        0.5299719456   -0.0314864125   -0.8854472727
17   
Generated by ForceBalance from scan.xyz: Frame 2 of 24
C        1.5346595289   -0.1944265991    1.7579286875
C        1.7874939282   -0.8133984588    2.9715761182
C       -0.6245381509   -1.2190092585    1.7598347407
C        0.3043451394   -0.4092287405    1.1052017064
C        0.7703390776   -1.6129238071    3.5307202530
C       -0.0028249955   -3.0004644886    5.2999507589
N       -0.4090792480   -1.8040167604    2.9531621239
N        0.0223420382    0.2711083205   -0.1208771451
O        1.0399493562   -2.1988318835    4.7277167325
H        2.2707386980    0.4622335377    1.3017765683
H        2.7224144454   -0.6796818075    3.5062905851
H       -1.6005703870   -1.4025812360    1.3089109644
H        0.4044100229   -3.3703275933    6.2420394231
H       -0.2610926297   -3.8349086025    4.6416369493
H       -0.9012302889   -2.4031644749    5.4801963828
H       -0.9726116147    0.4408705193   -0.2356874188
H        0.3765143516   -0.2220023142   -0.9363827815
17   
Generated by ForceBalance from scan.xyz: Frame 3 of 24
C        1.5356751095   -0.1806859679    1.7601811823
C        1.7799774081   -0.7876635494    2.9826311391
C       -0.6099195622   -1.2318144105    1.7386356244
C        0.3157141421   -0.4086346758    1.0966609272
C        0.7677172120   -1.6021700255    3.5275509273
C       -0.0079301989   -3.0023477238    5.2866657968
N       -0.4005527195   -1.8170549620    2.9324197296
N        0.0598960629    0.2494606578   -0.1581561143
O        1.0277138738   -2.1805425580    4.7288998771
H        2.2701448344    0.4753367804    1.3011928014
H        2.7065543705   -0.6423612239    3.5286883456
H       -1.5766255193   -1.4301547868    1.2741761565
H        0.3927544286   -3.3629050604    6.2350771313
H       -0.2394162910   -3.8422126369    4.6254983208
H       -0.9202821955   -2.4225565524    5.4526932443
H       -0.8808720189    0.6354287829   -0.1804207179
H        0.1566444567   -0.3911095136   -0.9431256606
17   
Generated by ForceBalance from scan.xyz: Frame 4 of 24
C        1.5367350193   -0.1729017531    1.7559893279
C        1.7697555553   -0.7624186526    2.9896046071
C       -0.5947590963   -1.2511020443    1.7137675333
C        0.3246758604   -0.4119991355    1.0839152441
C        0.7635035819   -1.5911090673    3.5234350203
C       -0.0118555439   -3.0018455612    5.2745260266
N       -0.3897122694   -1.8345444153    2.9089250963
N        0.0964102443    0.2075771344   -0.2006978916
O        1.0139828049   -2.1575481769    4.7320270644
H        2.2752713636    0.4749969747    1.2922432489
H        2.6894703620   -0.6065220342    3.5442405719
H       -1.5500266385   -1.4699209778    1.2349985585
H        0.3802975226   -3.3492416362    6.2313520692
H       -0.2112322816   -3.8492933955    4.6126197984
H       -0.9404959420   -2.4433598708    5.4219276185
H       -0.7261445800    0.8071541544   -0.1656389681
H       -0.0854912961   -0.5006914656   -0.9095624242
17   
Generated by ForceBalance from scan.xyz: Frame 5 of 24
C        1.5316630747   -0.1611239453    1.7451317430
C        1.7548760136   -0.7342046866    2.9877897999
C       -0.5848669366   -1.2681327329    1.6854603369
C        0.3257380510   -0.4125752399    1.0652504040
C        0.7561195307   -1.5775480336    3.5134003268
C       -0.0142988018   -2.9976168549    5.2585876652
N       -0.3812250005   -1.8485667485    2.8825152905
N        0.1178208040    0.1647281592   -0.2397986954
O        1.0003379654   -2.1320461583    4.7292484036
H        2.2752701835    0.4798776112    1.2796759037
H        2.6685134552   -0.5667027085    3.5490517222
H       -1.5290494378   -1.5082890568    1.1948791418
H        0.3703407028   -3.3328894742    6.2227785710
H       -0.1839384697   -3.8515617075    4.5966767061
H       -0.9577323323   -2.4600754927    5.3893957163
H       -0.5321177848    0.9480520074   -0.1841932578
H       -0.3167845931   -0.5204541310   -0.8556263971
17   
Generated by ForceBalance from scan.xyz: Frame 6 of 24
C        1.5167472843   -0.1469768268    1.7186777879
C        1.7335012475   -0.7054535424    2.9681348643
C       -0.5839025856   -1.2838976143    1.6467469170
C        0.3174125357   -0.4159017048    1.0306033125
C        0.7439012148   -1.5629005730    3.4897063632
C       -0.0171511981   -2.9885776545    5.2337059478
N       -0.3794567080   -1.8577318666    2.8474442224
N        0.1188109523    0.1249290058   -0.2844935828
O        0.9858547348   -2.1053601273    4.7125266909
H        2.2627264925    0.4932876549    1.2554330088
H        2.6406228004   -0.5224538221    3.5351108028
H       -1.5193888036   -1.5432289366    1.1490931073
H        0.3626458712   -3.3126781831    6.2036704499
H       -0.1624805646   -3.8483533391    4.5733982787
H       -0.9726983839   -2.4695642237    5.3515964656
H       -0.3243814263    1.0416996197   -0.2371570280
H       -0.5172482974   -0.4709462095   -0.8113438074
17   
Generated by ForceBalance from scan.xyz: Frame 7 of 24
C        1.4980484234   -0.1413580466    1.7084140930
C        1.7138158313   -0.6887820644    2.9622454895
C       -0.5860097102   -1.3092178077    1.6308017715
C        0.3060112902   -0.4320030421    1.0137586984
C        0.7354788654   -1.5597977119    3.4832170339
C       -0.0125746002   -2.9882295619    5.2298485968
N       -0.3779505379   -1.8740306769    2.8354162673
N        0.1062487137    0.0793591189   -0.3043723444
O        0.9796313223   -2.0921259662    4.7114383220
H        2.2417294530    0.5055167026    1.2498756819
H        2.6143756053   -0.4870673592    3.5333236133
H       -1.5158656172   -1.5841832358    1.1308827827
H        0.3656119189   -3.3026886654    6.2036751066
H       -0.1407160120   -3.8530554577    4.5723831955
H       -0.9770248610   -2.4838279781    5.3395318121
H       -0.1138230569    1.0736823950   -0.2891772808
H       -0.6788480997   -0.3895423083   -0.7511927923
17   
Generated by ForceBalance from scan.xyz: Frame 8 of 24
C        1.4809549215   -0.1394153690    1.7128306149
C        1.6994366952   -0.6806202659    2.9687815239
C       -0.5862205767   -1.3378398433    1.6313247783
C        0.2976474466   -0.4529436608    1.0118277527
C        0.7326340151   -1.5635408136    3.4903654425
C       -0.0024324097   -2.9939728733    5.2408004228
N       -0.3742373664   -1.8922263487    2.8398506489
N        0.0898671983    0.0379313333   -0.3046179936
O        0.9807200669   -2.0887499651    4.7223808821
H        2.2184289218    0.5201293804    1.2613958599
H        2.5934121315   -0.4598921359    3.5431465302
H       -1.5118099677   -1.6258872889    1.1308854497
H        0.3762888587   -3.3014306265    6.2167334911
H       -0.1195550175   -3.8624987007    4.5859729900
H       -0.9730412112   -2.5003710248    5.3464824461
H        0.0938750420    1.0543148925   -0.3413295580
H       -0.7968085218   -0.2848493697   -0.6832946259
17   
Generated by ForceBalance from scan.xyz: Frame 9 of 24
C        1.4563445556   -0.1295825936    1.7048787726
C        1.6817442708   -0.6691442107    2.9608059534
C       -0.5926492834   -1.3596056818    1.6212633879
C        0.2823702707   -0.4661061979    0.9989636768
C        0.7264176459   -1.5624330133    3.4837418557
C        0.0039978687   -2.9947364863    5.2376824167
N       -0.3767312665   -1.9030546807    2.8332506581
N        0.0596115033    0.0141771334   -0.3125770591
O        0.9794611601   -2.0825823013    4.7180815889
H        2.1835287726    0.5470475825    1.2611123110
H        2.5698868959   -0.4306861905    3.5371039374
H       -1.5137917937   -1.6608290578    1.1206728152
H        0.3842112945   -3.2966632974    6.2148273161
H       -0.1052754884   -3.8661292782    4.5851555068
H       -0.9712040304   -2.5095974428    5.3413727024
H        0.2751032364    1.0014066754   -0.4138283734
H       -0.8914834412   -0.1514070173   -0.6278332673
17   
Generated by ForceBalance from scan.xyz: Frame 10 of 24
C        1.4338885539   -0.1207986893    1.6996630348
C        1.6676540018   -0.6609944404    2.9546495082
C       -0.5962153755   -1.3819203244    1.6121511557
C        0.2698871652   -0.4786238533    0.9887337117
C        0.7220079082   -1.5621818765    3.4788840109
C        0.0100296557   -2.9961014031    5.2360401000
N       -0.3783088490   -1.9133306683    2.8281640817
N        0.0289047326   -0.0019856997   -0.3170443290
O        0.9788382870   -2.0780849636    4.7149679590
H        2.1490051540    0.5739280437    1.2634623596
H        2.5505420210   -0.4074081652    3.5325282709
H       -1.5109198073   -1.6976555965    1.1091966329
H        0.3916434585   -3.2926759010    6.2143224178
H       -0.0923132925   -3.8701851342    4.5859190616
H       -0.9690579107   -2.5183053308    5.3378409063
H        0.4346670620    0.9104806786   -0.4947034468
H       -0.9534367538   -0.0019671150   -0.5703994067
17   
Generated by ForceBalance from scan.xyz: Frame 11 of 24
C        1.4063020647   -0.1056597344    1.6805869871
C        1.6481623173   -0.6477015988    2.9341832173
C       -0.6036400198   -1.3979743005    1.5866758394
C        0.2527049467   -0.4835003358    0.9643025621
C        0.7103410846   -1.5558064843    3.4584603611
C        0.0066244970   -2.9920419646    5.2171443006
N       -0.3867047078   -1.9181305101    2.8069197419
N       -0.0104769902   -0.0036588832   -0.3356931245
O        0.9693154717   -2.0677622602    4.6956481777
H        2.1084972473    0.6066595144    1.2513102331
H        2.5261232542   -0.3820267249    3.5141321257
H       -1.5094287241   -1.7292588566    1.0784399238
H        0.3884787578   -3.2827348825    6.1970967539
H       -0.0872552229   -3.8687405021    4.5693147679
H       -0.9764635841   -2.5217960363    5.3154475169
H        0.5556910485    0.7956669758   -0.5963024833
H       -0.9912939177    0.1747028070   -0.5200553485
17   
Generated by ForceBalance from scan.xyz: Frame 12 of 24
C        1.3870445676   -0.0994087411    1.6915358286
C        1.6385039216   -0.6414315763    2.9439494699
C       -0.6011719701   -1.4241779601    1.5924161186
C        0.2427953983   -0.4971033492    0.9719698712
C        0.7089751624   -1.5575430368    3.4683300307
C        0.0183649132   -2.9987276239    5.2285286547
N       -0.3841292880   -1.9342269632    2.8165866838
N       -0.0486629635   -0.0120215097   -0.3241439635
O        0.9714811604   -2.0646406716    4.7058681255
H        2.0753929185    0.6284671314    1.2658350834
H        2.5125144675   -0.3653252320    3.5250188153
H       -1.4964005927   -1.7718282199    1.0774742710
H        0.4022501394   -3.2821087073    6.2097876090
H       -0.0642339967   -3.8780453653    4.5828825963
H       -0.9700284795   -2.5393463185    5.3239553548
H        0.6425073296    0.6416631177   -0.6741631582
H       -0.9849666806    0.3633009077   -0.4264839324
17   
Generated by ForceBalance from scan.xyz: Frame 13 of 24
C        1.3681014703   -0.0928133912    1.7054776846
C        1.6278123554   -0.6315587263    2.9577682340
C       -0.5985313821   -1.4481381633    1.6016906388
C        0.2319975469   -0.5092024574    0.9838774015
C        0.7079296197   -1.5586825243    3.4811122323
C        0.0343437143   -3.0073621627    5.2424405540
N       -0.3795868379   -1.9522836148    2.8284520651
N       -0.0913299917   -0.0196743669   -0.3119844126
O        0.9748647128   -2.0602610704    4.7182145128
H        2.0441121865    0.6468011300    1.2803561290
H        2.4974281022   -0.3453582566    3.5405795878
H       -1.4836459083   -1.8091834964    1.0796492837
H        0.4218365042   -3.2824822481    6.2245410108
H       -0.0344864333   -3.8888555465    4.5984557039
H       -0.9603163353   -2.5616895579    5.3356657296
H        0.6869102172    0.4591479754   -0.7531975952
H       -0.9175526370    0.5699068541   -0.3262469076
17   
Generated by ForceBalance from scan.xyz: Frame 14 of 24
C        1.3496779826   -0.0780286780    1.7259083883
C        1.6151238604   -0.6132695860    2.9780618703
C       -0.5977414955   -1.4597875293    1.6171752151
C        0.2190960000   -0.5091019191    1.0036407019
C        0.7070189061   -1.5564393430    3.4964218733
C        0.0538438762   -3.0192673169    5.2537029117
N       -0.3735943052   -1.9671613098    2.8425515259
N       -0.1320081610   -0.0168001368   -0.2942339269
O        0.9798446706   -2.0558351980    4.7311243202
H        2.0157261109    0.6701099216    1.3001643935
H        2.4795669602   -0.3177861823    3.5639939714
H       -1.4761318436   -1.8274924491    1.0894982678
H        0.4456400551   -3.2892881099    6.2354071208
H       -0.0000691634   -3.9002327091    4.6078774888
H       -0.9474732624   -2.5891991999    5.3467427377
H        0.6888063166    0.2596658998   -0.8255069917
H       -0.7750135944    0.7692627634   -0.2470314761
17   
Generated by ForceBalance from scan.xyz: Frame 15 of 24
C        1.3224779620   -0.0567984037    1.7314975399
C        1.5911247151   -0.5884786331    2.9840160059
C       -0.6092068296   -1.4594075062    1.6176738374
C        0.1953936330   -0.4976628322    1.0091989813
C        0.6968182257   -1.5502205818    3.4949351770
C        0.0651973581   -3.0316345433    5.2444267193
N       -0.3762208488   -1.9760695336    2.8383250104
N       -0.1714165173   -0.0072001886   -0.2935454676
O        0.9758986453   -2.0503554273    4.7264837501
H        1.9815641742    0.6972691374    1.3054810137
H        2.4500477950   -0.2839673057    3.5734644140
H       -1.4853118104   -1.8281996836    1.0876298920
H        0.4609221895   -3.2989502681    6.2252154469
H        0.0268078528   -3.9102905065    4.5945450436
H       -0.9428799902   -2.6181954801    5.3380171964
H        0.6408911225    0.0441378069   -0.9042727127
H       -0.5748878384    0.9255787493   -0.2347532203
17   
Generated by ForceBalance from scan.xyz: Frame 16 of 24
C        1.2931737960   -0.0287921025    1.7417977004
C        1.5651296199   -0.5609969157    2.9931488389
C       -0.6261516169   -1.4477118954    1.6215749884
C        0.1672630705   -0.4735225924    1.0198017410
C        0.6860301482   -1.5423891327    3.4940504195
C        0.0770136583   -3.0485264076    5.2303269040
N       -0.3805185334   -1.9787097723    2.8338936769
N       -0.2034215603    0.0139369294   -0.2863381774
O        0.9728447595   -2.0491125916    4.7206604642
H        1.9469719742    0.7307975540    1.3174155479
H        2.4194429861   -0.2494733210    3.5856362576
H       -1.5038597236   -1.8142323424    1.0928032957
H        0.4776831142   -3.3190296618    6.2082035970
H        0.0508389128   -3.9214961152    4.5722748835
H       -0.9367721764   -2.6505366299    5.3285190354
H        0.5408325626   -0.1650339812   -0.9583753141
H       -0.3452161726    1.0223455531   -0.2635508474
17   
Generated by ForceBalance from scan.xyz: Frame 17 of 24
C        1.2762166419   -0.0007213318    1.7638979681
C        1.5490512171   -0.5358046720    3.0140621944
C       -0.6319939109   -1.4338280266    1.6339301813
C        0.1529224426   -0.4474354151    1.0396143978
C        0.6843857889   -1.5348680511    3.5038385906
C        0.0931451323   -3.0655520531    5.2248750791
N       -0.3754331477   -1.9784714310    2.8375898248
N       -0.2153764360    0.0417606803   -0.2646777775
O        0.9765000655   -2.0498780885    4.7262738997
H        1.9264665877    0.7645805259    1.3442060066
H        2.3985432145   -0.2180983479    3.6101526259
H       -1.5117194784   -1.7989196269    1.1072998244
H        0.4962934544   -3.3408876088    6.2004080525
H        0.0785066783   -3.9323051322    4.5582034321
H       -0.9257723698   -2.6816106071    5.3261496031
H        0.4025766681   -0.3430385193   -0.9777126535
H       -0.1089012663    1.0538953557   -0.3045329337
17   
Generated by ForceBalance from scan.xyz: Frame 18 of 24
C        1.2698335872    0.0210309333    1.7936898024
C        1.5415960022   -0.5160243268    3.0437670161
C       -0.6256761461   -1.4279101979    1.6512428207
C        0.1525227129   -0.4301835993    1.0638314741
C        0.6895171177   -1.5294182636    3.5232735049
C        0.1097136959   -3.0793122162    5.2310375305
N       -0.3621423382   -1.9805408252    2.8489385971
N       -0.2119502213    0.0678874135   -0.2327773422
O        0.9832504220   -2.0503179034    4.7440242955
H        1.9166850631    0.7927114059    1.3802545969
H        2.3855337314   -0.1913558537    3.6439374552
H       -1.5050883297   -1.7962024248    1.1257448497
H        0.5114496340   -3.3573671067    6.2064434749
H        0.1077312560   -3.9416721208    4.5583435582
H       -0.9141901247   -2.7081606555    5.3307113575
H        0.2339458867   -0.4770479801   -0.9690570429
H        0.1074854109    1.0278389660   -0.3462266414
17   
Generated by ForceBalance from scan.xyz: Frame 19 of 24
C        1.2655350665    0.0403217369    1.8127942563
C        1.5334985886   -0.4995640222    3.0629257053
C       -0.6162513132   -1.4251202656    1.6543495395
C        0.1568137245   -0.4167298403    1.0744672650
C        0.6908968726   -1.5238067172    3.5331542397
C        0.1168275546   -3.0890496392    5.2286730195
N       -0.3515290320   -1.9814950954    2.8491824365
N       -0.2021226266    0.0988420825   -0.2091696925
O        0.9830068736   -2.0490556575    4.7539361352
H        1.9094316551    0.8186644579    1.4071392704
H        2.3714303229   -0.1686978704    3.6680472885
H       -1.4917985573   -1.8007752020    1.1268086436
H        0.5145487168   -3.3694734328    6.2051230302
H        0.1274659650   -3.9476709771    4.5510437837
H       -0.9115935643   -2.7290446787    5.3240612960
H        0.0408607778   -0.5518342689   -0.9530021937
H        0.2900650811    0.9684248563   -0.3988297880
17   
Generated by ForceBalance from scan.xyz: Frame 20 of 24
C        1.2624064451    0.0621236759    1.8224338715
C        1.5254363230   -0.4834038033    3.0711924820
C       -0.6040068189   -1.4206103017    1.6416616001
C        0.1643001767   -0.4009157243    1.0721574127
C        0.6887900603   -1.5161946542    3.5314663449
C        0.1152409814   -3.0949580645    5.2143011595
N       -0.3434412865   -1.9785726837    2.8361662910
N       -0.1875049163    0.1383074258   -0.1959040295
O        0.9763586800   -2.0456444079    4.7530301683
H        1.9025886610    0.8489526444    1.4273261717
H        2.3573727518   -0.1485700094    3.6823270028
H       -1.4717309854   -1.8064127309    1.1075901362
H        0.5064522716   -3.3778825211    6.1927374308
H        0.1386173648   -3.9500673393    4.5323171887
H       -0.9172413540   -2.7445421722    5.3029499489
H       -0.1632882263   -0.5634268330   -0.9309244689
H        0.4381620803    0.8924871154   -0.4645026116
17   
Generated by ForceBalance from scan.xyz: Frame 21 of 24
C        1.2691142346    0.0710669047    1.8535277776
C        1.5288379839   -0.4779329546    3.1009308747
C       -0.5783516247   -1.4331252213    1.6518974179
C        0.1833091565   -0.4028849348    1.0914223289
C        0.6968605863   -1.5172274648    3.5550609186
C        0.1231520453   -3.1020375849    5.2318154895
N       -0.3248038578   -1.9864601251    2.8501804273
N       -0.1616972344    0.1566159446   -0.1633092293
O        0.9795945709   -2.0457803694    4.7793024358
H        1.9021591121    0.8683226551    1.4681145475
H        2.3538806122   -0.1369464461    3.7179603268
H       -1.4349363349   -1.8333324729    1.1095287550
H        0.5072785868   -3.3826710808    6.2137681313
H        0.1596754185   -3.9567319743    4.5497078340
H       -0.9131691835   -2.7604710190    5.3111617282
H       -0.3581039503   -0.5497827185   -0.8660196239
H        0.5620632021    0.7739463132   -0.5181365686
17   
Generated by ForceBalance from scan.xyz: Frame 22 of 24
C        1.2713109859    0.0898818406    1.8619182758
C        1.5264312764   -0.4664653027    3.1060483338
C       -0.5562827530   -1.4350425619    1.6325365196
C        0.1997448967   -0.3943223112    1.0845536379
C        0.6960385945   -1.5119510568    3.5507881583
C        0.1175490398   -3.1039353459    5.2185288869
N       -0.3151718997   -1.9851786013    2.8354469119
N       -0.1355555414    0.1853358145   -0.1593296913
O        0.9716009078   -2.0416132169    4.7767722025
H        1.8949371796    0.9004497899    1.4896317892
H        2.3427922109   -0.1210781530    3.7321338617
H       -1.3997599712   -1.8475819289    1.0781503952
H        0.4934906366   -3.3845140138    6.2036891775
H        0.1659737202   -3.9570126710    4.5350393228
H       -0.9217335587   -2.7690981282    5.2883574434
H       -0.5436560977   -0.4793547156   -0.8088428746
H        0.6512877943    0.6479590381   -0.6028036291
17   
Generated by ForceBalance from scan.xyz: Frame 23 of 24
C        1.5051618218   -0.2308602715    1.7259295289
C        1.7783028434   -0.8544567413    2.9327538202
C       -0.6889311547   -1.1782266349    1.8129102784
C        0.2383364418   -0.3898744939    1.1264332614
C        0.7611357741   -1.6224471462    3.5315941888
C        0.0134336079   -2.9944033323    5.3229892734
N       -0.4387574732   -1.7784362066    2.9907989861
N       -0.0943740771    0.2868688467   -0.0673900030
O        1.0576390131   -2.2194599280    4.7210680786
H        2.2631927663    0.3834285624    1.2444031715
H        2.7421569492   -0.7594618920    3.4223690979
H       -1.6863680659   -1.3338366986    1.3998886565
H        0.4389378009   -3.3786746144    6.2513522398
H       -0.2882677049   -3.8201042251    4.6715393340
H       -0.8636916103   -2.3751003824    5.5332870231
H       -0.9217946469   -0.0898485659   -0.5184432002
H        0.6709390732    0.3295902055   -0.7323702469
17   
Generated by ForceBalance from scan.xyz: Frame 24 of 24
C        1.5135841235   -0.2155283998    1.7322414993
C        1.7807329565   -0.8420768783    2.9381957654
C       -0.6696927026   -1.1893530840    1.7892462502
C        0.2580258744   -0.3938181219    1.1135799489
C        0.7620140968   -1.6186871214    3.5253047032
C        0.0053652356   -2.9934115118    5.3106823838
N       -0.4318234712   -1.7824891150    2.9740926301
N       -0.0603771272    0.2912110086   -0.0826272949
O        1.0507465197   -2.2131638647    4.7170034701
H        2.2638130305    0.4173684194    1.2636976582
H        2.7356571528   -0.7349502017    3.4426575060
H       -1.6602107251   -1.3551779678    1.3634242124
H        0.4248596977   -3.3741284547    6.2431868376
H       -0.2857087743   -3.8213610681    4.6573954964
H       -0.8768318583   -2.3785171724    5.5122317900
H       -0.9920753163    0.0750230002   -0.4223190713
H        0.6213207124    0.1569967933   -0.8226856475
