25   
Generated by ForceBalance from scan.xyz: Frame 1 of 24
C        1.1139159287   -2.4761084605    0.8458870850
C        0.0821225712   -1.6607930526    1.3107315978
C        2.3995260126   -2.4122954347    1.3875563929
C        1.6133890701   -0.6623610770    2.8948677951
C        0.3064762198   -0.7388741021    2.3605295678
C        2.6162770441   -1.4917200010    2.4086476588
C        4.9107372071   -0.8812211540    2.3214096395
C       -0.3652542164    1.2029160069    3.6924469414
C       -1.9510606709    0.1687103431    2.0894941520
N        6.0301498772   -0.8476121279    3.1176971494
N       -0.7206360697    0.0606336880    2.8612734007
O        4.8423451122   -0.4724768381    1.1806921922
O        3.8666950319   -1.4122196818    3.0421650121
H        0.9088647519   -3.1733095034    0.0375963642
H       -0.8948022171   -1.7464032601    0.8512152941
H        3.2087805658   -3.0338074816    1.0202760847
H        1.8711262255    0.0315419655    3.6848352859
H       -1.2762268497    1.7231073804    3.9932791023
H        0.2904189946    1.9206606270    3.1745329818
H        0.1383565493    0.8766352850    4.6079144412
H       -2.6449448271    0.8270527230    2.6149715698
H       -2.4379496657   -0.8070133404    1.9952055053
H       -1.7877084407    0.5726798209    1.0777441089
H        6.9029807870   -0.7081667916    2.6277373669
H        6.0468276471   -1.4407418617    3.9369127928
25   
Generated by ForceBalance from scan.xyz: Frame 2 of 24
C        1.0992748711   -2.4140904454    0.7796088458
C        0.0631377642   -1.6215005491    1.2779304027
C        2.3763174895   -2.3858807868    1.3405402018
C        1.5728859630   -0.7287203702    2.9401165615
C        0.2735291042   -0.7693120403    2.3852702859
C        2.5812243067   -1.5279097969    2.4188203352
C        4.8881048096   -0.9569303010    2.3942214048
C       -0.3767529998    1.2802244327    3.5506299767
C       -2.0274123023    0.0380280404    2.2171918912
N        5.9895613504   -0.9638515605    3.2151875287
N       -0.7548277144    0.0139064435    2.9262814246
O        4.8504509450   -0.5142116310    1.2647552237
O        3.8204621498   -1.4919952842    3.0767744579
H        0.9046216202   -3.0583857953   -0.0738749296
H       -0.9046184875   -1.6712272007    0.7948548796
H        3.1894732148   -2.9855828778    0.9467261651
H        1.8156459912   -0.0921857397    3.7819930192
H       -1.2803838631    1.7996626550    3.8754171707
H        0.1802733210    1.9389083434    2.8663233845
H        0.2339519352    1.1133887573    4.4418544810
H       -2.7441644457    0.6246324556    2.7956001431
H       -2.4319853859   -0.9737999716    2.1264231817
H       -1.9550495436    0.4759063495    1.2076524480
H        6.8755469602   -0.8231084387    2.7498994861
H        5.9783456027   -1.5772145938    4.0194260077
25   
Generated by ForceBalance from scan.xyz: Frame 3 of 24
C        1.1577016900   -2.2929646929    0.6903476980
C        0.1176461861   -1.5229357765    1.2209453213
C        2.4276153152   -2.2951810502    1.2639664113
C        1.6093079618   -0.7355894105    2.9495254449
C        0.3221127757   -0.7299170088    2.3681248294
C        2.6235444224   -1.5020479485    2.3952171148
C        4.9509596016   -1.0143649765    2.4312404052
C       -0.3941432165    1.4009822007    3.3440903203
C       -2.0385223205   -0.0944425420    2.3698899839
N        6.0313344188   -1.0768733535    3.2766087485
N       -0.7116860038    0.0257110065    2.9568937161
O        4.9568909455   -0.5524360490    1.3087729497
O        3.8480610799   -1.5200386541    3.0797367855
H        0.9711497104   -2.8917449100   -0.1973869687
H       -0.8458432850   -1.5389413064    0.7262797583
H        3.2432423447   -2.8750613191    0.8465541919
H        1.8270514436   -0.1720990445    3.8496785464
H       -1.1990692606    1.7906157656    3.9739011962
H       -0.2817106410    2.0634013496    2.4697189868
H        0.5272668404    1.4449937724    3.9239926876
H       -2.7542181313    0.4256369211    3.0122515094
H       -2.3369415242   -1.1447713294    2.3201910665
H       -2.1110955699    0.3402469201    1.3577797830
H        6.9331137129   -0.9591722864    2.8359885087
H        5.9781453251   -1.6993826186    4.0720258205
25   
Generated by ForceBalance from scan.xyz: Frame 4 of 24
C        1.1762134921   -2.1887567450    0.6206654961
C        0.1328610092   -1.4433990499    1.1822384315
C        2.4364198574   -2.2324309347    1.2136901459
C        1.6030416171   -0.7799675960    2.9817822333
C        0.3296119123   -0.7312328973    2.3786493238
C        2.6238587588   -1.5136134399    2.3961015125
C        4.9582075750   -1.0664365437    2.4893338002
C       -0.4017311967    1.4560957260    3.1594234861
C       -2.0491267260   -0.1940305683    2.5244695496
N        6.0219409714   -1.1810852808    3.3492912730
N       -0.6910109950    0.0273475604    3.0034264140
O        4.9902358700   -0.5574373326    1.3877828330
O        3.8371783750   -1.5853008894    3.0956734377
H        1.0019913419   -2.7323495055   -0.3042682817
H       -0.8272445920   -1.4199732679    0.6795347016
H        3.2539012766   -2.7932882905    0.7742780807
H        1.7925853677   -0.2718425536    3.9218459488
H       -1.1262418369    1.8990439212    3.8499874641
H       -0.4576350107    1.9960363449    2.1987840618
H        0.5954783166    1.6051576954    3.5747914947
H       -2.7465596966    0.2962125303    3.2103662658
H       -2.2754274708   -1.2632870750    2.5188756195
H       -2.2315141831    0.2105883790    1.5131446579
H        6.9335805582   -1.0559897218    2.9317057852
H        5.9451930764   -1.8318180424    4.1197452085
25   
Generated by ForceBalance from scan.xyz: Frame 5 of 24
C        1.1980719736   -2.0727515738    0.5581048946
C        0.1538378606   -1.3516379113    1.1491768073
C        2.4475737073   -2.1653482406    1.1696964339
C        1.6008434423   -0.8173498658    3.0108246207
C        0.3414982597   -0.7244344810    2.3912043603
C        2.6261326853   -1.5232100225    2.3966475649
C        4.9682103273   -1.1270908802    2.5372118936
C       -0.4363082780    1.4909577057    2.9695684789
C       -2.0421994180   -0.2876331370    2.6832193475
N        6.0148533228   -1.2918435350    3.4089820258
N       -0.6672695323    0.0435344551    3.0439077719
O        5.0265692845   -0.5784596879    1.4559032167
O        3.8282091900   -1.6476754427    3.1066030436
H        1.0362104879   -2.5577932699   -0.4009687479
H       -0.8019203875   -1.2863097406    0.6401859995
H        3.2656266959   -2.7085206123    0.7094464368
H        1.7688066616   -0.3565502443    3.9795210718
H       -1.1259503503    2.0039250193    3.6478918256
H       -0.5894817040    1.8844292484    1.9495529133
H        0.5845230985    1.7270196971    3.2761870579
H       -2.7181702713    0.1979055621    3.3943882555
H       -2.1944576588   -1.3678349133    2.7503573829
H       -2.3286346147    0.0465228288    1.6701399483
H        6.9359484189   -1.1658797977    3.0130654736
H        5.9134875317   -1.9645450005    4.1573498384
25   
Generated by ForceBalance from scan.xyz: Frame 6 of 24
C        1.4892822995   -1.5005229927   -0.2141619484
C        0.4153293734   -0.8857464323    0.4299949371
C        2.5777647380   -1.9811757900    0.5217745705
C        1.5212803944   -1.1801400119    2.5643518156
C        0.4281661649   -0.7105116490    1.8227279405
C        2.5720005347   -1.8169738444    1.9044816488
C        3.5565594156   -3.0719535285    3.6874366354
C       -0.5680641434    1.3712803265    2.5204138842
C       -1.0840960956   -0.6528291387    3.7348169744
N        4.7907879316   -3.3128940661    4.2365644338
N       -0.7074808882   -0.0866188082    2.4387609946
O        2.4992892071   -3.4860469719    4.1179921668
O        3.7111697740   -2.2498053925    2.5946037428
H        1.4711046251   -1.6320492957   -1.2927631335
H       -0.4509218449   -0.5428336243   -0.1285663092
H        3.4143739161   -2.4812629196    0.0433093803
H        1.5525389116   -1.0723247120    3.6416420812
H       -1.5163386962    1.8087876138    2.8503602258
H       -0.3266486746    1.7770258599    1.5345113911
H        0.2234224665    1.6821301360    3.2257505631
H       -2.0804459873   -0.2847455981    4.0015022535
H       -0.3980572636   -0.3834935876    4.5569423081
H       -1.1249821734   -1.7421718179    3.6633265375
H        4.8314113787   -4.0830987593    4.8896695013
H        5.6088613729   -3.1390382175    3.6676575761
25   
Generated by ForceBalance from scan.xyz: Frame 7 of 24
C        1.5885045058   -1.3984087654   -0.1934492039
C        0.5026687302   -0.8217283875    0.4605281325
C        2.6643048788   -1.9219730389    0.5345037063
C        1.5649313267   -1.2332609582    2.5973309835
C        0.4847718211   -0.7198070875    1.8647379690
C        2.6276321983   -1.8354085348    1.9222006697
C        3.5786244454   -3.1772646569    3.6623589956
C       -0.7477662654    1.3035654565    2.3556870690
C       -0.9025096960   -0.5710151465    3.8695651345
N        4.8042841623   -3.4489519076    4.2174572494
N       -0.6652024400   -0.1548427307    2.4897928824
O        2.5147026620   -3.6092671858    4.0578299384
O        3.7522489643   -2.3057736021    2.6121241477
H        1.5886799385   -1.4714689793   -1.2777844928
H       -0.3524398832   -0.4592262777   -0.1030328469
H        3.5096996968   -2.3956980415    0.0452585826
H        1.5817879426   -1.1860676621    3.6782988758
H       -1.7395455760    1.6426159603    2.6724573214
H       -0.6034209564    1.5954373753    1.3132489563
H        0.0108624798    1.8221406334    2.9678859977
H       -1.9156221635   -0.2705266015    4.1555475357
H       -0.2031562574   -0.1194843936    4.5953647652
H       -0.8304326876   -1.6582560934    3.9480873812
H        4.8324107454   -4.2516767976    4.8309039245
H        5.6303088108   -3.2533937694    3.6673164474
25   
Generated by ForceBalance from scan.xyz: Frame 8 of 24
C        1.6467305231   -1.3067705016   -0.1531890155
C        0.5556038242   -0.7436484799    0.5011759324
C        2.7013971807   -1.8815254425    0.5675956259
C        1.5646742314   -1.2732678718    2.6366198622
C        0.5010188462   -0.7113571997    1.9113046983
C        2.6331596849   -1.8582743312    1.9559160604
C        3.5389984652   -3.2729820974    3.6659333163
C       -0.9456122528    1.2220846341    2.2390457583
C       -0.7893207783   -0.4581362260    3.9727540251
N        4.7543618793   -3.5830372524    4.2246553742
N       -0.6444548862   -0.1777143110    2.5496615922
O        2.4647678851   -3.7008314388    4.0375956598
O        3.7384769001   -2.3705977582    2.6476254949
H        1.6680795712   -1.3255347423   -1.2396637300
H       -0.2755655466   -0.3493310106   -0.0754979842
H        3.5516563684   -2.3407834021    0.0734708606
H        1.5684349494   -1.2737910744    3.7177670343
H       -1.9623963990    1.4564110573    2.5695283097
H       -0.8909854116    1.4001427143    1.1644494323
H       -0.2479096982    1.9163624715    2.7383291103
H       -1.7958481566   -0.1646048927    4.2854413541
H       -0.0677348888    0.0894990128    4.6045861930
H       -0.6735834130   -1.5285561707    4.1587274026
H        4.7621648746   -4.4068506714    4.8101298431
H        5.5886452980   -3.3855336002    3.6877954703
25   
Generated by ForceBalance from scan.xyz: Frame 9 of 24
C        1.7372446138   -1.1894229089   -0.1748009058
C        0.6442871001   -0.6387904804    0.4875057347
C        2.7758007581   -1.8108019684    0.5283102504
C        1.6167324580   -1.2820145908    2.6083465912
C        0.5601976944   -0.6788689811    1.8986418049
C        2.6869114895   -1.8460749122    1.9155622871
C        3.5701483899   -3.3210869750    3.5909212701
C       -1.0947975045    1.1178785225    2.1227403373
C       -0.6337688605   -0.3454870477    4.0086936208
N        4.7833653880   -3.6665354510    4.1343446357
N       -0.5731637745   -0.1746218641    2.5637652705
O        2.4909877112   -3.7414299406    3.9571860240
O        3.7809720145   -2.3953639403    2.5970095879
H        1.7743042814   -1.1511595647   -1.2603810625
H       -0.1596145208   -0.2035552145   -0.0957682891
H        3.6294478110   -2.2528363914    0.0247933130
H        1.6147519919   -1.3299255409    3.6874734397
H       -2.0834570150    1.2738981693    2.5636837296
H       -1.2107402858    1.1486659715    1.0397357328
H       -0.4429767073    1.9554034784    2.4232781487
H       -1.6285368199   -0.0521016244    4.3545539553
H        0.1090654064    0.2636492532    4.5525853028
H       -0.4839353775   -1.3952346823    4.2724632194
H        4.7795085873   -4.5066197926    4.6962791842
H        5.6174325004   -3.4707944239    3.5964603456
25   
Generated by ForceBalance from scan.xyz: Frame 10 of 24
C        1.7995605344   -1.0937294719   -0.0942639659
C        0.6974521956   -0.5517419434    0.5625593373
C        2.8085608468   -1.7614034859    0.6061068208
C        1.6032870388   -1.3064953137    2.6782241124
C        0.5697062907   -0.6586710305    1.9680194020
C        2.6833264741   -1.8518168319    1.9896322343
C        3.5165657419   -3.3967463158    3.6308230944
C       -1.2540191960    0.9712270707    2.0355607655
C       -0.5799657363   -0.2215045650    4.0839474428
N        4.7171088239   -3.7793948607    4.1784475751
N       -0.5652027986   -0.1721454268    2.6278303804
O        2.4265365773   -3.8116756049    3.9701980102
O        3.7556014700   -2.4418707086    2.6722297383
H        1.8698237992   -1.0002216417   -1.1749077214
H       -0.0667067244   -0.0547378678   -0.0228802006
H        3.6713630163   -2.1905310702    0.1072560339
H        1.5718596295   -1.4061906518    3.7528749225
H       -2.0830836436    1.2607545821    2.6840871343
H       -1.6825746606    0.7133725862    1.0634065608
H       -0.5931698031    1.8423215973    1.9032430042
H       -1.5592895802    0.1056837908    4.4393425572
H        0.1882591364    0.4187404854    4.5491294965
H       -0.4312122612   -1.2475400693    4.4306305681
H        4.6919767424   -4.6381988017    4.7107833331
H        5.5606771876   -3.5811703583    3.6564913381
25   
Generated by ForceBalance from scan.xyz: Frame 11 of 24
C        1.8564960319   -0.9567858516   -0.1558033510
C        0.7639244311   -0.4252476585    0.5270318858
C        2.8568498355   -1.6688788190    0.5102720564
C        1.6635426193   -1.2911801111    2.6059799265
C        0.6352951340   -0.5985019599    1.9265434825
C        2.7334323551   -1.8175267285    1.8903281749
C        3.5563791567   -3.4397723800    3.4634481559
C       -1.3380995686    0.8532299979    1.9600557009
C       -0.4454236641   -0.1117969176    4.0728339108
N        4.7567806627   -3.8614419130    3.9826796870
N       -0.4721758210   -0.1143362157    2.6173568933
O        2.4639526297   -3.8522684921    3.7982932478
O        3.8005529923   -2.4529973059    2.5397966904
H        1.9285099889   -0.8114289732   -1.2306214021
H        0.0134258873    0.1189183964   -0.0329747546
H        3.7134854738   -2.0857638246   -0.0090604416
H        1.6280886440   -1.4437431843    3.6744098005
H       -2.1414864061    1.1354075794    2.6424085929
H       -1.8054896240    0.4197755556    1.0695537084
H       -0.8038037496    1.7678416068    1.6578114736
H       -1.3968140323    0.2701845044    4.4468322057
H        0.3637845490    0.5120918115    4.4848985902
H       -0.3265698537   -1.1285035552    4.4603539480
H        4.7237750095   -4.7407033764    4.4800452592
H        5.5974441780   -3.6560643135    3.4587778514
25   
Generated by ForceBalance from scan.xyz: Frame 12 of 24
C        1.8242726611   -0.9404552165   -0.1823429481
C        0.7889718972   -0.3376452531    0.5301940782
C        2.8226897774   -1.6755118569    0.4616817860
C        1.7443710352   -1.1829609116    2.5953989212
C        0.7298374787   -0.4451485132    1.9415116878
C        2.7534108348   -1.7807619501    1.8498719212
C        3.5419457482   -3.4356116783    3.4016183268
C       -1.3313058197    0.8886176726    1.9838856366
C       -0.4472656710   -0.1774477910    4.0800387668
N        4.7326963992   -3.9086277741    3.8987291797
N       -0.2916605603    0.1427363674    2.6699050214
O        2.4392487265   -3.8023019594    3.7558046739
O        3.8098058903   -2.4585055569    2.4746309295
H        1.8467972812   -0.8418859829   -1.2646725398
H        0.0275521932    0.2086790237   -0.0131525779
H        3.6311295408   -2.1530798063   -0.0819950660
H        1.7424406769   -1.3103697466    3.6683439769
H       -1.9945982535    1.3433224557    2.7211275452
H       -1.9410824882    0.2541308671    1.3223174838
H       -0.9045568331    1.6986010877    1.3797843279
H       -1.3564988466    0.2923034574    4.4576092763
H        0.3938616944    0.1986135692    4.6776400939
H       -0.5273099577   -1.2601612529    4.2479662561
H        4.6716125139   -4.7867488876    4.3954133731
H        5.5715994644   -3.7378771309    3.3598085018
25   
Generated by ForceBalance from scan.xyz: Frame 13 of 24
C        1.8475904910   -0.9059436579   -0.1676456602
C        0.8328917096   -0.2744608314    0.5494338268
C        2.8333039197   -1.6605968550    0.4735737585
C        1.7773326767   -1.1336602475    2.6094227626
C        0.7802519546   -0.3702859541    1.9611864146
C        2.7689737028   -1.7579498599    1.8613507070
C        3.4951641889   -3.4725894399    3.3693366829
C       -1.3810054673    0.7795756717    1.9915919990
C       -0.3921069487   -0.1002681616    4.0938175992
N        4.6607344234   -3.9668365456    3.9034477663
N       -0.2108220001    0.2766703888    2.6975036128
O        2.3766672490   -3.8483362149    3.6575520681
O        3.8049516809   -2.4619681525    2.4915729439
H        1.8645635999   -0.8130639449   -1.2505091491
H        0.0846125236    0.2893889781    0.0062688477
H        3.6254484924   -2.1614815072   -0.0731908783
H        1.7774939858   -1.2666732363    3.6817369123
H       -2.0569927357    1.2473951171    2.7092720013
H       -1.9325813973   -0.0119867639    1.4599351750
H       -1.0981079035    1.5480475218    1.2650646811
H       -1.2206797327    0.4727015531    4.5132623398
H        0.4997803657    0.1410101497    4.6812537907
H       -0.6088177734   -1.1719338631    4.2211509154
H        4.5766555536   -4.8634839818    4.3622467654
H        5.5244556358   -3.7760957173    3.4125533091
25   
Generated by ForceBalance from scan.xyz: Frame 14 of 24
C        1.9520278848   -0.7162286550   -0.2747589856
C        0.9335879966   -0.1269391163    0.4702890880
C        2.9428012616   -1.4929899094    0.3337012758
C        1.8739240107   -1.0775396931    2.4877200855
C        0.8727556344   -0.2945455910    1.8743932690
C        2.8757397293   -1.6557890121    1.7137283531
C        3.6012054970   -3.4514973548    3.1194427932
C       -1.4102785177    0.5732457863    1.9827469800
C       -0.2043741477   -0.0019622042    4.0500847292
N        4.7622629047   -3.9623268146    3.6470081741
N       -0.1240325693    0.3323720520    2.6330516852
O        2.4819215703   -3.8595630595    3.3555504896
O        3.9136196754   -2.3807346992    2.3166216248
H        1.9740793836   -0.5667948382   -1.3511461471
H        0.1884981021    0.4675802839   -0.0445285565
H        3.7418090747   -1.9592464306   -0.2334273250
H        1.8688735507   -1.2702262577    3.5508715090
H       -2.0950099967    1.0200393097    2.7061009981
H       -1.8669191096   -0.3495158627    1.5920831393
H       -1.3075832963    1.2834275728    1.1580799510
H       -0.9879734167    0.6017580018    4.5122893950
H        0.7351029804    0.2437487371    4.5531032877
H       -0.4290969026   -1.0651250896    4.2333518002
H        4.6828163499   -4.8876967241    4.0456159405
H        5.6339650429   -3.7263064323    3.1911975540
25   
Generated by ForceBalance from scan.xyz: Frame 15 of 24
C        2.0365733404   -0.6576115335   -0.2284723126
C        1.0005165150   -0.0680538238    0.4890096029
C        2.9853755198   -1.4708526521    0.4025197604
C        1.8298755289   -1.0924478052    2.5175046119
C        0.8722047929   -0.2786343499    1.8817564918
C        2.8583968422   -1.6669649022    1.7724318627
C        3.4931803784   -3.5121232216    3.1555356227
C       -1.4954711515    0.3354720237    2.0203335175
C       -0.1754139521    0.1430035489    4.0505580198
N        4.6204583756   -4.0572517861    3.7200273768
N       -0.1555910663    0.3526653126    2.6089391425
O        2.3579998583   -3.9085455242    3.3260287208
O        3.8581199303   -2.4227590526    2.4007449401
H        2.1147161619   -0.4731377272   -1.2967179272
H        0.3027989689    0.5784585132   -0.0315169619
H        3.8021428252   -1.9334935926   -0.1419988535
H        1.7701602540   -1.3150075332    3.5735233591
H       -2.1398391998    1.0189125649    2.5803952663
H       -1.9474993679   -0.6698293626    2.0432946821
H       -1.4770640101    0.6778308469    0.9860793969
H       -0.9421979551    0.7878457715    4.4876568830
H        0.7854506688    0.4270564860    4.4877533678
H       -0.3979733679   -0.8986236053    4.3374664225
H        4.5086851122   -4.9921130249    4.0875252508
H        5.5162036549   -3.8218691256    3.3131689683
25   
Generated by ForceBalance from scan.xyz: Frame 16 of 24
C        2.0899865777   -0.4941451968   -0.2451730594
C        1.0492304646    0.0696651889    0.4856148107
C        3.0216568368   -1.3431559872    0.3660788541
C        1.8356273231   -1.0578554465    2.4778863100
C        0.8957902753   -0.2161805840    1.8596254842
C        2.8753890808   -1.6026271762    1.7233930672
C        3.4877388143   -3.5037508689    3.0380153278
C       -1.5062449095    0.1074788280    2.0874207413
C       -0.0878615063    0.3129374498    4.0340134279
N        4.6057834877   -4.0772076540    3.5916423796
N       -0.1563571982    0.3996347720    2.5805564272
O        2.3486421515   -3.8992447727    3.1823349081
O        3.8658942019   -2.3879604207    2.3289347851
H        2.1931318217   -0.2566887605   -1.3007020638
H        0.3596923333    0.7552664921    0.0025486593
H        3.8474889866   -1.7818381056   -0.1849256494
H        1.7543399414   -1.3195577146    3.5242490216
H       -2.2168133656    0.8027790883    2.5451070134
H       -1.8195378657   -0.9226699056    2.3267748433
H       -1.5579496935    0.2360693734    1.0057884779
H       -0.8545590577    0.9672661386    4.4591558860
H        0.8867558798    0.6620551651    4.3849342979
H       -0.2589713232   -0.7058626068    4.4228114487
H        4.4852199964   -5.0240298065    3.9240278779
H        5.5075069643   -3.8308137991    3.2050963032
25   
Generated by ForceBalance from scan.xyz: Frame 17 of 24
C        2.1654966165   -0.4153877151   -0.2190368274
C        1.1068815312    0.1414979345    0.4936282121
C        3.0558391839   -1.3001261711    0.4022564895
C        1.7951528869   -1.0679647751    2.4753263263
C        0.8972038234   -0.1937161684    1.8452195452
C        2.8555420698   -1.6051198380    1.7440013839
C        3.3914291718   -3.5524254478    3.0220310814
C       -1.4983404180   -0.1356131370    2.1573226099
C       -0.0566407407    0.4994364377    3.9842817015
N        4.4803664432   -4.1615472281    3.5940861666
N       -0.1914436071    0.4192767427    2.5326259187
O        2.2407222175   -3.9285305974    3.1172149898
O        3.8128449803   -2.4244223194    2.3569430548
H        2.3166915555   -0.1449027017   -1.2606988333
H        0.4368665862    0.8537270168    0.0204065309
H        3.8972079122   -1.7329911367   -0.1299125937
H        1.6681263081   -1.3518663729    3.5121958141
H       -2.2923017929    0.4992618833    2.5640510102
H       -1.6387517034   -1.1619405512    2.5373341547
H       -1.6000412470   -0.1565066325    1.0703273070
H       -0.8330820440    1.1672813495    4.3708494212
H        0.9173824114    0.9218185286    4.2440444936
H       -0.1673091089   -0.4731396957    4.4950050560
H        4.3326073341   -5.1139180236    3.8983823835
H        5.3990293359   -3.9202193117    3.2462412226
25   
Generated by ForceBalance from scan.xyz: Frame 18 of 24
C        2.2333205182   -0.2368146504   -0.2373467379
C        1.1427733793    0.2763577828    0.4650074941
C        3.1005998586   -1.1521659482    0.3687532565
C        1.7626264934   -1.0411321092    2.4004031394
C        0.8898846388   -0.1334486655    1.7836477639
C        2.8516569476   -1.5363634577    1.6835808854
C        3.3467155462   -3.5449193737    2.8808676873
C       -1.4586470523   -0.3800319181    2.2527177076
C       -0.0385223711    0.6994561942    3.8800568676
N        4.4172726166   -4.1853153241    3.4522328421
N       -0.2469617147    0.4239909954    2.4586681994
O        2.1927801571   -3.9202641594    2.9269071235
O        3.7895735115   -2.3884236040    2.2806900884
H        2.4228211568    0.0878625435   -1.2569820369
H        0.4765466907    1.0044822732    0.0112467470
H        3.9631073453   -1.5540121986   -0.1542525978
H        1.5935873461   -1.3755839961    3.4168440667
H       -2.3230188667    0.1584418222    2.6556551897
H       -1.3986658501   -1.3669182888    2.7435966334
H       -1.6198931687   -0.5390330539    1.1834570045
H       -0.8673481387    1.3165188151    4.2426684535
H        0.8904929277    1.2595331040    4.0143567461
H        0.0026865734   -0.2059284093    4.5107614811
H        4.2579103016   -5.1494823694    3.7098825192
H        5.3465372054   -3.9310296516    3.1441933117
25   
Generated by ForceBalance from scan.xyz: Frame 19 of 24
C        1.2445208023   -2.5984499230    1.2623065894
C        0.2532898884   -1.6460796142    1.5268752241
C        2.5537481298   -2.4237709872    1.7093995794
C        1.8935087563   -0.2878286256    2.6704839886
C        0.5716617109   -0.4723060726    2.2281070717
C        2.8553291026   -1.2567741815    2.4153683549
C        5.2157048333   -1.0469188925    2.1102216182
C       -0.7847937061    0.5327780283    3.9602211293
C       -1.5505711881    0.5978953378    1.6720726879
N        6.3390730644   -0.7348003547    2.8331761870
N       -0.3854235914    0.5356339119    2.5488144327
O        5.1799027125   -1.2642492299    0.9166080191
O        4.1283733177   -1.0329912925    2.9549087361
H        0.9868111429   -3.4976237613    0.7087773454
H       -0.7593939087   -1.8213038934    1.1796092844
H        3.3243194844   -3.1570804915    1.5017209489
H        2.1714483232    0.6202804457    3.1967742911
H       -1.3565919605    1.4407908106    4.1781990630
H        0.0982854783    0.5224815192    4.6022786215
H       -1.4074339849   -0.3428839520    4.2152342668
H       -2.0909218927    1.5287046366    1.8722159703
H       -2.2599626804   -0.2365922215    1.8154631499
H       -1.2292474205    0.6073219329    0.6275534173
H        7.2198696544   -0.9402450274    2.3826820177
H        6.2975593246   -0.8083350234    3.8409175502
25   
Generated by ForceBalance from scan.xyz: Frame 20 of 24
C        1.2753735094   -2.5674683612    1.1234841897
C        0.2725058346   -1.6351458755    1.4138089326
C        2.5721064918   -2.4168904426    1.6113612268
C        1.8759733386   -0.3379764862    2.6720640053
C        0.5610516062   -0.4999352875    2.1914800063
C        2.8467658757   -1.2877107473    2.3867130658
C        5.2125777888   -1.0443139393    2.1535826409
C       -0.6599308634    0.6855441997    3.9333409750
C       -1.6435760673    0.4508028065    1.7379629557
N        6.3175316552   -0.7786175914    2.9228943214
N       -0.4046500947    0.4895407643    2.5036961614
O        5.2084725183   -1.1818015747    0.9476705237
O        4.1050167891   -1.0869998380    2.9699491265
H        1.0329414758   -3.4350874649    0.5153523091
H       -0.7284235654   -1.8016387553    1.0323574814
H        3.3511390744   -3.1352229413    1.3843264023
H        2.1525588633    0.5399794605    3.2469787312
H       -1.2263757092    1.6110152614    4.0770792333
H        0.2771950890    0.7747310562    4.4840970828
H       -1.2367738097   -0.1486678013    4.3688518733
H       -2.2064937315    1.3678869473    1.9360809507
H       -2.2936837386   -0.4047845056    1.9935594685
H       -1.4222300014    0.4140486380    0.6683474818
H        7.2085190142   -0.9538595610    2.4797123463
H        6.2527492565   -0.9234100232    3.9216564558
25   
Generated by ForceBalance from scan.xyz: Frame 21 of 24
C        1.2638489287   -2.5372993772    1.0573535909
C        0.2590997439   -1.6138748916    1.3640896525
C        2.5452898705   -2.4248073909    1.5930606351
C        1.8243177099   -0.4025952475    2.7480046091
C        0.5220335656   -0.5215137709    2.2149696124
C        2.7958601754   -1.3429119837    2.4382569112
C        5.1448506365   -0.9829375090    2.2752959597
C       -0.5854752943    0.8648075440    3.9068989846
C       -1.7342377137    0.3402895929    1.8348309117
N        6.2442434718   -0.8191978842    3.0815682036
N       -0.4492263776    0.4566707550    2.5087321167
O        5.1403151822   -0.9143982870    1.0636779916
O        4.0399009083   -1.1935711062    3.0685112903
H        1.0326883228   -3.3681142523    0.3957483215
H       -0.7276301386   -1.7588528052    0.9413586804
H        3.3287175168   -3.1359072783    1.3562888162
H        2.1029571240    0.4316258554    3.3818182591
H       -1.1947818103    1.7718089685    3.9580883396
H        0.3842605080    1.0953707249    4.3469769238
H       -1.0662454843    0.0858952963    4.5224983041
H       -2.3205976438    1.2399071091    2.0404498213
H       -2.3242375508   -0.5330745474    2.1635347299
H       -1.5898816783    0.2763444422    0.7533399386
H        7.1380124761   -0.8947280053    2.6161552858
H        6.1865285124   -1.1424364999    4.0381676155
25   
Generated by ForceBalance from scan.xyz: Frame 22 of 24
C        1.3248368478   -2.4744005152    0.9545915027
C        0.3094999319   -1.5708061069    1.2753142257
C        2.5908303139   -2.3896538982    1.5344380577
C        1.8219507647   -0.4399198423    2.7827560648
C        0.5423265034   -0.5174693399    2.1877760689
C        2.8063866807   -1.3602813085    2.4485857160
C        5.1555404723   -0.9741753275    2.4119992225
C       -0.4115507956    1.0178946294    3.8366206065
C       -1.7798579517    0.2116858710    1.9591427277
N        6.2206830830   -0.8658082759    3.2727553821
N       -0.4450100011    0.4260283798    2.5013707407
O        5.1985086128   -0.8099652749    1.2103693433
O        4.0227577537   -1.2550507631    3.1402912081
H        1.1156102952   -3.2696002542    0.2437101972
H       -0.6600483724   -1.6946199409    0.8093950602
H        3.3831473612   -3.0865035094    1.2852745328
H        2.0739452543    0.3328940057    3.4983939361
H       -1.2648110995    1.6896137466    3.9489101720
H        0.4898615831    1.6197645469    3.9789512487
H       -0.4536282889    0.2611848917    4.6358078847
H       -2.4091498584    1.0656536475    2.2183283464
H       -2.2632840440   -0.7036451435    2.3400142275
H       -1.7423575961    0.1535616249    0.8679267514
H        7.1324295159   -0.9011438320    2.8383350224
H        6.1286325110   -1.2684838895    4.1960040010
25   
Generated by ForceBalance from scan.xyz: Frame 23 of 24
C        1.2284322551   -2.4508204781    0.8470294987
C        0.2119269323   -1.5653035445    1.2055305541
C        2.4961225802   -2.3884653084    1.4290262004
C        1.7207936651   -0.5000025565    2.7666096680
C        0.4403865129   -0.5548649132    2.1690627509
C        2.7084149462   -1.4011377100    2.3876811158
C        5.0612537941   -1.0284522715    2.3732206451
C       -0.3744427241    1.1528264987    3.7246021331
C       -1.9184633624    0.0975147161    2.0920013873
N        6.1223500687   -0.9524028954    3.2428220406
N       -0.5505370973    0.3637562222    2.5134701135
O        5.1127702758   -0.8265807342    1.1776643949
O        3.9228756267   -1.3233413037    3.0865769168
H        1.0222046226   -3.2114734364    0.0984465862
H       -0.7555967568   -1.6650293421    0.7292800543
H        3.2904897121   -3.0699780578    1.1467200872
H        1.9695842895    0.2316548889    3.5247671176
H       -1.2397360791    1.8046474864    3.8559488018
H        0.5072561021    1.7969677629    3.6459161909
H       -0.2680568901    0.5310408408    4.6278122267
H       -2.5615565386    0.9111140929    2.4319106237
H       -2.3144296890   -0.8489054206    2.4938386893
H       -1.9889701439    0.0627571166    1.0003009336
H        7.0358230474   -0.9804395661    2.8114597736
H        6.0233782108   -1.3850622811    4.1516966300
25   
Generated by ForceBalance from scan.xyz: Frame 24 of 24
C        1.0369490285   -2.6103377943    1.0660427407
C        0.0266587678   -1.7091707315    1.3989379635
C        2.2850931427   -2.5795258549    1.6933463177
C        1.5065050106   -0.6827060117    3.0180098548
C        0.2393406134   -0.7207698456    2.3904460550
C        2.4873464866   -1.6013157010    2.6630612493
C        4.8435915886   -1.2502344110    2.7065309067
C       -0.5089668519    1.1701784242    3.7689988399
C       -1.9681378001    0.2560407357    1.9425874041
N        5.8858083889   -1.1972072084    3.6009626100
N       -0.7616227069    0.1689534735    2.7479281271
O        4.9253419261   -1.0334425112    1.5151820211
O        3.6869859406   -1.5439157660    3.3897388746
H        0.8441787270   -3.3565241012    0.2994651379
H       -0.9253791966   -1.7767357916    0.8862205537
H        3.0760063946   -3.2719143611    1.4283454671
H        1.7497400280    0.0527555813    3.7746378664
H       -1.4296837928    1.7192546702    3.9716006679
H        0.2617779880    1.8968093073    3.4689000655
H       -0.1888846289    0.7030064903    4.7082393465
H       -2.6029863404    1.0542287742    2.3295554462
H       -2.5478529499   -0.6756782713    1.9786589978
H       -1.7463798228    0.4792526056    0.8890613029
H        6.8081727001   -1.2327446561    3.1894762893
H        5.7610076186   -1.6429502149    4.5003584751
