29   
Generated by ForceBalance from scan.xyz: Frame 1 of 24
C        2.4890738155   -0.6747512749    0.5655069325
C        2.2223947066   -2.2470448878    2.3654564226
C        1.4317019892    0.0738330823    1.0815430653
C        1.1633198193   -1.5008062823    2.8786269085
C        2.9031950037   -1.8511316059    1.2062139332
C        0.7452505156   -0.3042598837    2.2562029202
C        4.9228357703   -2.3637401905   -0.1995525832
C        6.8128181016   -3.2499508327   -1.4733641950
C       -0.8889369727    1.4899284511    1.9318729352
C       -1.1677573336   -0.1336912773    3.7737582208
N        3.9460551722   -2.6843561997    0.7304149008
N        5.8527658415   -3.3867597245   -0.3808328433
N       -0.2872099436    0.4794824589    2.7904322852
O        4.9947514379   -1.2928424783   -0.7975386008
H        3.0005576079   -0.3434331054   -0.3280533802
H        2.5157425636   -3.1611368448    2.8802379138
H        1.1498477190    0.9735504277    0.5476740539
H        0.6723161823   -1.8616728329    3.7743347485
H        6.3432985216   -3.3233801529   -2.4628819936
H        7.5709527436   -4.0308891616   -1.3724632223
H        7.2970145063   -2.2757727694   -1.3998849787
H       -1.6795940976    2.0022071573    2.4835022750
H       -1.3242687975    1.0692404515    1.0104495641
H       -0.1513918775    2.2465128532    1.6467192728
H       -1.9226953602    0.5929032778    4.0802247514
H       -0.6101550830   -0.4174159765    4.6720689714
H       -1.6837967790   -1.0302087105    3.3915250957
H        4.1317225213   -3.4942126599    1.3079869208
H        5.5065219172   -4.3268711930   -0.2302882311
29   
Generated by ForceBalance from scan.xyz: Frame 2 of 24
C        2.3987967379   -0.7542216215    0.4661671379
C        2.2150295523   -2.2646639842    2.3269959811
C        1.3782753215    0.0233649902    1.0102951450
C        1.1851666219   -1.4947621337    2.8664715540
C        2.8359987853   -1.9127832506    1.1225894096
C        0.7475606431   -0.3135650696    2.2289957398
C        4.9244036212   -2.3693211451   -0.1757948960
C        6.8944933330   -3.1754191998   -1.3804456140
C       -0.8896991199    1.4816717341    1.9274750827
C       -1.0777316627   -0.0732487597    3.8413058603
N        3.8404560550   -2.7676979152    0.5988804696
N        5.8322147923   -3.4011019770   -0.4033674543
N       -0.2504403444    0.4961145767    2.7879582769
O        5.0864563462   -1.2344332122   -0.6145764151
H        2.8672566146   -0.4544970493   -0.4622146249
H        2.5322577703   -3.1611648542    2.8580121252
H        1.0777215924    0.9096610099    0.4644027559
H        0.7364010198   -1.8225300653    3.7963585343
H        6.5176153575   -3.1119594790   -2.4095283628
H        7.6163249670   -3.9930472910   -1.3082318398
H        7.3981570853   -2.2373385962   -1.1456265746
H       -1.6476337436    2.0184256121    2.5012289795
H       -1.3748064445    1.0331926655    1.0448894193
H       -0.1636391182    2.2225836704    1.5787562240
H       -1.8108199287    0.6695724948    4.1614531880
H       -0.4720768173   -0.3270402285    4.7172082933
H       -1.6186937679   -0.9798346850    3.5226117902
H        3.9707836822   -3.6241275237    1.1227265193
H        5.4419510464   -4.3360309187   -0.4008841378
29   
Generated by ForceBalance from scan.xyz: Frame 3 of 24
C        2.2830860431   -0.8426261534    0.3522147131
C        2.2042635468   -2.2878420638    2.2697192015
C        1.3051954433   -0.0347144028    0.9272564679
C        1.2089991929   -1.4943571916    2.8411949807
C        2.7498034722   -1.9821558735    1.0187820011
C        0.7447216931   -0.3300757042    2.1914107635
C        4.8987682500   -2.3917641820   -0.1575471797
C        6.9611555271   -3.1163416731   -1.2554803649
C       -0.8906177818    1.4739236039    1.9300285575
C       -0.9777536224   -0.0190138217    3.9019666740
N        3.7246536432   -2.8451844249    0.4456038436
N        5.8000208120   -3.4185532872   -0.4223090751
N       -0.2132671788    0.5047906400    2.7798671288
O        5.1263101107   -1.2180092145   -0.4299044690
H        2.6970746302   -0.5802440887   -0.6139077100
H        2.5530693439   -3.1651253789    2.8123689368
H        0.9799926496    0.8373904497    0.3728237389
H        0.8127703522   -1.7866657503    3.8061203207
H        6.6928032293   -2.9235649633   -2.3023370473
H        7.6558773864   -3.9589333136   -1.2083543960
H        7.4560579657   -2.2274736892   -0.8632807202
H       -1.6111972401    2.0328382293    2.5300378357
H       -1.4275531040    1.0072467839    1.0879624110
H       -0.1787758242    2.1983752249    1.5222057080
H       -1.6853603965    0.7408510386    4.2388355980
H       -0.3210590891   -0.2462049757    4.7478993634
H       -1.5426157739   -0.9318750613    3.6500055808
H        3.8018749664   -3.7429973470    0.9082997920
H        5.3892900661   -4.3330868637   -0.5684288045
29   
Generated by ForceBalance from scan.xyz: Frame 4 of 24
C        2.1628951665   -0.9075697923    0.2449390097
C        2.2123232829   -2.2924950801    2.2067047143
C        1.2196057362   -0.0824889310    0.8511346581
C        1.2474555915   -1.4862062995    2.8121067560
C        2.6720904801   -2.0251179390    0.9144142047
C        0.7383295366   -0.3439011625    2.1556395096
C        4.8787297458   -2.4013801589   -0.1210393008
C        7.0142431617   -3.0671974020   -1.1124228452
C       -0.9119114726    1.4544124298    1.9444346658
C       -0.8741545561    0.0172222771    3.9620744236
N        3.6308465687   -2.8799553491    0.2939796415
N        5.7675604545   -3.4224294876   -0.4393509505
N       -0.1874194383    0.5025970743    2.7744157326
O        5.1661947897   -1.2128965444   -0.2004238520
H        2.5167808300   -0.6783274160   -0.7544134270
H        2.6049598690   -3.1475889770    2.7542218938
H        0.8573793806    0.7722644352    0.2928005081
H        0.9121383149   -1.7479772865    3.8083531618
H        6.8568249689   -2.7321552182   -2.1459228726
H        7.6755856683   -3.9375701947   -1.1102657980
H        7.4938820295   -2.2567830834   -0.5628627039
H       -1.5974344523    2.0265228087    2.5722835544
H       -1.4957852816    0.9703627342    1.1446479623
H       -0.2245861585    2.1693367852    1.4812445084
H       -1.5653762217    0.7848004214    4.3148243992
H       -0.1630598282   -0.1742519641    4.7721947156
H       -1.4460851100   -0.9076356484    3.7805273789
H        3.6458262255   -3.8215623987    0.6686976647
H        5.3423270255   -4.2902806249   -0.7434362534
29   
Generated by ForceBalance from scan.xyz: Frame 5 of 24
C        2.0662440620   -0.9480732327    0.1277484767
C        2.2596653571   -2.2718498268    2.1210604385
C        1.1462769967   -0.1184522180    0.7632756654
C        1.3195753891   -1.4640109227    2.7610187331
C        2.6335600655   -2.0363763649    0.7955737243
C        0.7509783169   -0.3500237139    2.1021831603
C        4.8915055867   -2.4303827363   -0.0879055762
C        7.0720461974   -3.0791856529   -0.9892617139
C       -0.9314423268    1.4254648657    1.9465840558
C       -0.7415799852    0.0491937968    4.0024928993
N        3.5826460530   -2.8768351786    0.1322943453
N        5.7473942387   -3.4476122220   -0.4969001029
N       -0.1503708464    0.4967471072    2.7505438861
O        5.2504256391   -1.2683197229    0.0573039794
H        2.3552931391   -0.7483883130   -0.8996115682
H        2.7044329210   -3.1018340105    2.6665243900
H        0.7353409566    0.7136199976    0.2044425756
H        1.0499144894   -1.6988671737    3.7835949068
H        7.0368096080   -2.5751597372   -1.9639364575
H        7.6818657716   -3.9828635813   -1.0706365898
H        7.5380059031   -2.4005652210   -0.2742414399
H       -1.5892762099    1.9996593552    2.6013642489
H       -1.5518377309    0.9200049279    1.1889535289
H       -0.2802698719    2.1405983360    1.4336518689
H       -1.4219245604    0.8182743698    4.3723903952
H        0.0283965639   -0.0967030856    4.7671127431
H       -1.3059931671   -0.8918249774    3.8985744113
H        3.5103226334   -3.8590508585    0.3730631015
H        5.3029873141   -4.2187493461   -0.9809677747
29   
Generated by ForceBalance from scan.xyz: Frame 6 of 24
C        1.9082235388   -0.9583863527    0.0436603411
C        2.2631243648   -2.2014417051    2.0667580093
C        0.9952497063   -0.1362960505    0.7005353713
C        1.3387908484   -1.3985250626    2.7328468313
C        2.5508700949   -2.0009445198    0.7139178343
C        0.6909291736   -0.3302232600    2.0687310722
C        4.8421710659   -2.4803036275   -0.0184849570
C        7.0445890020   -3.1763913085   -0.8250597419
C       -1.0483381875    1.3921846490    1.9557224292
C       -0.6942530455    0.0942203511    4.0446589821
N        3.4891624010   -2.8331875696    0.0171977339
N        5.6548080972   -3.4974940018   -0.5109298340
N       -0.1993092200    0.5074486696    2.7399333898
O        5.2733759451   -1.3924800303    0.3437011971
H        2.1301966371   -0.7912352137   -1.0065439786
H        2.7693183028   -2.9960506921    2.6105053265
H        0.5208809175    0.6587368496    0.1380241309
H        1.1396847213   -1.5998079064    3.7784988635
H        7.1409777565   -2.5177472977   -1.6980728897
H        7.5876203374   -4.1067836899   -1.0114640123
H        7.4924056521   -2.6704280652    0.0308047690
H       -1.6856774000    1.9670343285    2.6297260988
H       -1.6943603585    0.8487889276    1.2476098307
H       -0.4460904006    2.1091761338    1.3882268919
H       -1.3843907661    0.8506737873    4.4220060890
H        0.1255466612    0.0144611321    4.7661607748
H       -1.2224193333   -0.8724107274    4.0155653387
H        3.3114160324   -3.8286824541    0.0934874304
H        5.2021623895   -4.1360124111   -1.1544030493
29   
Generated by ForceBalance from scan.xyz: Frame 7 of 24
C        1.8222735785   -0.9417196532   -0.0358026341
C        2.3414029678   -2.1003499694    2.0014579167
C        0.8969112838   -0.1497355059    0.6424582749
C        1.4184578637   -1.3193177963    2.6925104627
C        2.5531523982   -1.9265950508    0.6303752378
C        0.6784786601   -0.3094032830    2.0311573779
C        4.8584443170   -2.5321967244    0.0372344283
C        7.0594356237   -3.2988633031   -0.7061714503
C       -1.1458300009    1.3258332352    1.9632299956
C       -0.6141166396    0.1173906254    4.0694216294
N        3.4858641148   -2.7416381652   -0.0948835687
N        5.6224806796   -3.5241249454   -0.5734318820
N       -0.2166582138    0.5035984677    2.7236322299
O        5.3496950850   -1.5807186716    0.6335923165
H        1.9831461753   -0.7959984100   -1.1005798904
H        2.9134790084   -2.8533885840    2.5375081110
H        0.3501731799    0.5984410463    0.0814408959
H        1.2868293766   -1.4934179924    3.7535982334
H        7.3006360984   -2.5056214238   -1.4258476406
H        7.5345572090   -4.2314170339   -1.0224581461
H        7.4624369775   -3.0076844632    0.2643254673
H       -1.7705564330    1.8934286547    2.6549227134
H       -1.8046008924    0.7330963201    1.3085351429
H       -0.6082683183    2.0499935390    1.3422970853
H       -1.3168944461    0.8548522906    4.4607336272
H        0.2491298693    0.1025980803    4.7427959645
H       -1.0958859052   -0.8727840247    4.1054561753
H        3.2026341537   -3.7013186203   -0.2573745633
H        5.1826353190   -3.9796679607   -1.3644013748
29   
Generated by ForceBalance from scan.xyz: Frame 8 of 24
C        1.8569770803   -1.1386186148    0.0266753681
C        2.5073703484   -2.0959712785    2.1328770138
C        0.8924477711   -0.3595837356    0.6671183729
C        1.5668249866   -1.3014443034    2.7827663044
C        2.6775614664   -2.0121663901    0.7462180152
C        0.7372736062   -0.4033760958    2.0705150813
C        4.9655967433   -2.8603753503    0.3452507226
C        7.1907571405   -3.4168266250   -0.5179890552
C       -1.2144814296    1.0689445304    1.9343917542
C       -0.5255947628    0.0991454650    4.1089342917
N        3.6004182721   -2.8567164300    0.0637372424
N        5.7373896554   -3.4751178158   -0.6313635500
N       -0.1860421335    0.4144563319    2.7288269859
O        5.4399766553   -2.4302537970    1.3924966888
H        1.9654566719   -1.0620640494   -1.0538607158
H        3.1296746528   -2.7762375250    2.7034446830
H        0.2745909719    0.2924029004    0.0615717389
H        1.4780293189   -1.3956560818    3.8583311989
H        7.5939229308   -2.4211072160   -0.7443563017
H        7.6283603147   -4.1480222736   -1.2029647494
H        7.4740398711   -3.6728228410    0.5032946513
H       -1.8557480984    1.6572581344    2.5931889458
H       -1.8476391753    0.3570383096    1.3797361622
H       -0.7680407720    1.7621556211    1.2139689058
H       -1.2585656626    0.8225239733    4.4707212452
H        0.3547646636    0.1796338635    4.7544471403
H       -0.9482190475   -0.9117908838    4.2276656135
H        3.3267270016   -3.1216142604   -0.8742136969
H        5.3664979417   -3.4917701799   -1.5729664297
29   
Generated by ForceBalance from scan.xyz: Frame 9 of 24
C        1.7967568065   -1.0769464011   -0.0012057986
C        2.5900087878   -1.9497406812    2.0936929122
C        0.8174583154   -0.3390607169    0.6639870421
C        1.6292364766   -1.1956509306    2.7634028925
C        2.6976128720   -1.8876364315    0.6981092376
C        0.7207329355   -0.3609268027    2.0726821934
C        4.9578760773   -2.8665452842    0.3283015801
C        7.1649772722   -3.5647200922   -0.4698690220
C       -1.3191135710    0.9895148458    1.9895681351
C       -0.4943799874    0.1008547596    4.1488205953
N        3.6271450444   -2.6811605050   -0.0262557360
N        5.7246026700   -3.4489076896   -0.6739780468
N       -0.2209302968    0.4185022816    2.7545220906
O        5.4097172931   -2.6118468907    1.4418473389
H        1.8528971362   -1.0182625874   -1.0870838448
H        3.2728632496   -2.5770618375    2.6531788053
H        0.1401746110    0.2636846392    0.0711012377
H        1.5904013936   -1.2727699798    3.8433576436
H        7.6796449903   -2.5964734628   -0.5211354887
H        7.5756477449   -4.2335719485   -1.2308816620
H        7.3483425850   -3.9937214519    0.5156584433
H       -1.9676776278    1.5547783357    2.6613939978
H       -1.9299570075    0.2273813719    1.4779336066
H       -0.9454753811    1.6901335519    1.2356929498
H       -1.2526301858    0.7876615544    4.5295336012
H        0.4021799705    0.2365859560    4.7618369066
H       -0.8565426089   -0.9302737717    4.2924402280
H        3.3738614267   -2.8745210135   -0.9864428251
H        5.4266486393   -3.2955670331   -1.6292178019
29   
Generated by ForceBalance from scan.xyz: Frame 10 of 24
C        1.7959538068   -1.0500112918   -0.0233474057
C        2.6840300467   -1.8271750011    2.0720209868
C        0.7983182584   -0.3436499992    0.6468609852
C        1.6988118748   -1.1056056696    2.7441273980
C        2.7543692113   -1.7979533286    0.6722553216
C        0.7342314576   -0.3346848465    2.0575453023
C        4.9795725989   -2.9011389606    0.3337349103
C        7.1604489935   -3.7144557568   -0.4159360431
C       -1.3830779044    0.8910537813    1.9923330478
C       -0.4575603915    0.1132753799    4.1489988433
N        3.7052577186   -2.5402071042   -0.0730594414
N        5.7545983485   -3.4331502591   -0.6947554990
N       -0.2298758065    0.4165326425    2.7430179731
O        5.3841930121   -2.8223796268    1.4915872146
H        1.8212751009   -1.0171695194   -1.1116224597
H        3.4095938126   -2.4043889323    2.6300596073
H        0.0789828476    0.2095085881    0.0551236167
H        1.6892047616   -1.1585480557    3.8262269829
H        7.7540076465   -2.8036062895   -0.2651239319
H        7.5755261188   -4.2839969337   -1.2515843098
H        7.2283930554   -4.3162606702    0.4908360626
H       -2.0435626150    1.4439637823    2.6629788194
H       -1.9623743799    0.0746230165    1.5299097579
H       -1.0749329937    1.5820935952    1.2012332029
H       -1.2361389614    0.7740677064    4.5349869184
H        0.4458349669    0.2998895061    4.7377267399
H       -0.7706338239   -0.9298561716    4.3199094621
H        3.4694955589   -2.6927862009   -1.0447207494
H        5.5626637551   -3.0828424618   -1.6255736827
29   
Generated by ForceBalance from scan.xyz: Frame 11 of 24
C        1.7839262857   -1.0130326676   -0.0363785904
C        2.7521748942   -1.7040852770    2.0530640039
C        0.7680304901   -0.3402020300    0.6396071275
C        1.7427633478   -1.0201522573    2.7300312287
C        2.7924268433   -1.7019179638    0.6513953548
C        0.7292342752   -0.3091061025    2.0509227421
C        4.9752503129   -2.9090592480    0.3235223604
C        7.1213651657   -3.8357237256   -0.3943878551
C       -1.4472308894    0.8087873375    2.0064021180
C       -0.4411547932    0.1182803783    4.1577987075
N        3.7706951961   -2.3850915405   -0.1119163052
N        5.7647514030   -3.3999535412   -0.7152188636
N       -0.2575536686    0.4070311530    2.7424176747
O        5.3153523391   -2.9885122747    1.5023713444
H        1.7837512286   -1.0013331727   -1.1255233309
H        3.5126645962   -2.2376604999    2.6070243102
H        0.0122751654    0.1666736996    0.0517493777
H        1.7563514067   -1.0542448189    3.8129151438
H        7.7790520381   -3.0036528859   -0.1117502971
H        7.5386963574   -4.3487371623   -1.2647695273
H        7.0811577045   -4.5341204492    0.4420600828
H       -2.1222438899    1.3400899198    2.6800444390
H       -1.9931117953   -0.0441073845    1.5697496632
H       -1.1895540760    1.4997375194    1.1972938929
H       -1.2459724036    0.7440280215    4.5483283331
H        0.4625905099    0.3629547254    4.7244797357
H       -0.6948213498   -0.9366310607    4.3533428226
H        3.5629658017   -2.4704798852   -1.0980749358
H        5.6634629035   -2.9350608309   -1.6094277622
29   
Generated by ForceBalance from scan.xyz: Frame 12 of 24
C        1.7998413898   -0.9805640232   -0.0473526683
C        2.8267419291   -1.5839815823    2.0418826632
C        0.7626015574   -0.3433329904    0.6300492225
C        1.7906138447   -0.9406668079    2.7189238246
C        2.8487018274   -1.6075742351    0.6400097941
C        0.7367050161   -0.2904947146    2.0410306354
C        4.9823768137   -2.9072172728    0.3196157800
C        7.0826362939   -3.9499635676   -0.3730576510
C       -1.4963205706    0.7107594255    2.0055237953
C       -0.4304677250    0.1159787282    4.1540600932
N        3.8623860600   -2.2295240807   -0.1288368139
N        5.7853600531   -3.3750529481   -0.7207010209
N       -0.2766128196    0.3892543884    2.7320700418
O        5.2470057428   -3.1178088058    1.5015356787
H        1.7843892362   -0.9904140339   -1.1365033092
H        3.6145708411   -2.0755758603    2.5961779492
H       -0.0231631145    0.1161830117    0.0426588789
H        1.8174610683   -0.9573721374    3.8019514431
H        7.7860858747   -3.2045642316    0.0198287702
H        7.5083524698   -4.4161669542   -1.2653927497
H        6.9387049971   -4.7147619081    0.3906977768
H       -2.1884393711    1.2220249165    2.6773868168
H       -2.0028194204   -0.1796427537    1.5972007519
H       -1.2870991087    1.3949644687    1.1770649749
H       -1.2575310951    0.7121487321    4.5445539041
H        0.4680599458    0.4099132521    4.7052074110
H       -0.6346975450   -0.9457779010    4.3697188822
H        3.6757419031   -2.2723984087   -1.1221078903
H        5.7781950706   -2.8183829169   -1.5671347457
29   
Generated by ForceBalance from scan.xyz: Frame 13 of 24
C        1.8038731311   -0.9517793556   -0.0521432759
C        2.8883404973   -1.4585256380    2.0323002468
C        0.7481557079   -0.3475477053    0.6275551319
C        1.8306239969   -0.8557236440    2.7127506415
C        2.8907222066   -1.5140280289    0.6313251793
C        0.7378675757   -0.2696661544    2.0373976395
C        4.9627121571   -2.9005181566    0.3057894645
C        7.0145268324   -4.0470612499   -0.3677109736
C       -1.5408629703    0.6220486801    2.0138608096
C       -0.4205376710    0.1194557439    4.1584980361
N        3.9394169695   -2.0775626024   -0.1370344376
N        5.7910634382   -3.3348507788   -0.7285019471
N       -0.2979517869    0.3737634778    2.7298538433
O        5.1291449701   -3.2444726389    1.4736558773
H        1.7718679558   -0.9880817815   -1.1403584694
H        3.7031696021   -1.9046880331    2.5861653382
H       -0.0664578154    0.0625547858    0.0428696077
H        1.8725548288   -0.8502029838    3.7953924423
H        7.7476368158   -3.4034766641    0.1355058040
H        7.4584253766   -4.4614299607   -1.2765748418
H        6.7628649993   -4.8655035858    0.3073943313
H       -2.2494875371    1.1097074634    2.6860401414
H       -2.0071417593   -0.2991406465    1.6265805637
H       -1.3757705468    1.3016385748    1.1716908226
H       -1.2731258354    0.6787049362    4.5486435903
H        0.4677535999    0.4701698274    4.6928606955
H       -0.5661621860   -0.9472931200    4.3957479452
H        3.7855795851   -2.0572288333   -1.1369095795
H        5.8805608740   -2.7017967729   -1.5144009664
29   
Generated by ForceBalance from scan.xyz: Frame 14 of 24
C        1.8216400108   -0.9244550684   -0.0536728303
C        2.9543713516   -1.3233419069    2.0289019461
C        0.7447307103   -0.3571732762    0.6260522957
C        1.8738312619   -0.7658436079    2.7105150857
C        2.9417857709   -1.4129307687    0.6302834679
C        0.7452097161   -0.2517928731    2.0339383353
C        4.9361663210   -2.8884033847    0.2916296828
C        6.9294781294   -4.1437001728   -0.3648821150
C       -1.5760901774    0.5223468913    2.0177339566
C       -0.4106257519    0.1189928463    4.1598243812
N        4.0281151364   -1.9229099944   -0.1265360899
N        5.7949273934   -3.2973189318   -0.7265391291
N       -0.3153683620    0.3504912259    2.7251266998
O        4.9850936666   -3.3539022038    1.4266767551
H        1.7787164958   -0.9913738393   -1.1399740859
H        3.7973246475   -1.7142529474    2.5834972013
H       -0.0964864458   -0.0019864352    0.0431490291
H        1.9261882671   -0.7343595343    3.7922143535
H        7.6779797074   -3.6142300140    0.2387249953
H        7.3970563706   -4.5123041643   -1.2815238215
H        6.5675433662   -4.9940395996    0.2137813484
H       -2.3021749392    0.9857776337    2.6883850041
H       -1.9983905476   -0.4282940035    1.6519927439
H       -1.4536542621    1.1937200219    1.1618021503
H       -1.2883759069    0.6394716529    4.5477397189
H        0.4623910049    0.5276123665    4.6779999766
H       -0.4964110322   -0.9489706428    4.4193232251
H        3.9124382243   -1.8371521413   -1.1285403542
H        5.9861566627   -2.6056213297   -1.4416786902
29   
Generated by ForceBalance from scan.xyz: Frame 15 of 24
C        1.8432912560   -0.8926929017   -0.0509979570
C        3.0183224979   -1.1655556927    2.0274416875
C        0.7417817233   -0.3703498840    0.6273181188
C        1.9137621381   -0.6619211192    2.7103624551
C        2.9955890222   -1.2939853048    0.6329905364
C        0.7496145801   -0.2327148887    2.0323756968
C        4.9001973348   -2.8491556337    0.2606810094
C        6.8264945753   -4.2082740387   -0.3920708483
C       -1.6099706819    0.4170547814    2.0207448414
C       -0.4059080225    0.1213498536    4.1621280369
N        4.1219215018   -1.7514729874   -0.1040843268
N        5.8016400724   -3.2242504362   -0.7309930055
N       -0.3375735867    0.3200809901    2.7210398817
O        4.8084536432   -3.4353427135    1.3343651613
H        1.7934298442   -0.9950174716   -1.1339943646
H        3.8923431193   -1.4870010863    2.5807916252
H       -0.1253136116   -0.0797780789    0.0465946646
H        1.9739711775   -0.5995432585    3.7902428940
H        7.5770166887   -3.8149393464    0.3058512882
H        7.3207176512   -4.5313869590   -1.3119313797
H        6.3488199544   -5.0702617096    0.0744643322
H       -2.3545008976    0.8522281177    2.6900007825
H       -1.9851983660   -0.5591373454    1.6717877896
H       -1.5276322541    1.0810895659    1.1542210071
H       -1.3131216840    0.5926551890    4.5448481688
H        0.4422544759    0.6000030657    4.6616211600
H       -0.4190318873   -0.9425885089    4.4496484380
H        4.0645949001   -1.5763509770   -1.0999205517
H        6.1023207669   -2.4830468282   -1.3527041659
29   
Generated by ForceBalance from scan.xyz: Frame 16 of 24
C        1.8966613018   -0.8909764844   -0.0310357230
C        3.0891432400   -1.0111293714    2.0505251714
C        0.7673641504   -0.4093763226    0.6326609173
C        1.9592151721   -0.5542152108    2.7232401362
C        3.0703239755   -1.1949996513    0.6637841874
C        0.7700720443   -0.2224702389    2.0323951282
C        4.8649338209   -2.8363551861    0.2427750885
C        6.7003595858   -4.3103315012   -0.4233493313
C       -1.6242080197    0.2839187960    2.0051992669
C       -0.4032929515    0.1329156361    4.1522690831
N        4.2362261521   -1.6187628784   -0.0396395008
N        5.8061824272   -3.1931260337   -0.7164735211
N       -0.3474597190    0.2860519191    2.7048408742
O        4.6209921670   -3.5210483209    1.2294986526
H        1.8518304741   -1.0401603497   -1.1085104174
H        3.9874668602   -1.2530473201    2.6080529774
H       -0.1173167946   -0.1921147518    0.0465224160
H        2.0170272196   -0.4482606084    3.7997662543
H        7.4217473249   -4.0780112410    0.3707854708
H        7.2393116915   -4.5778156313   -1.3359409075
H        6.1048777184   -5.1649153668   -0.1007710861
H       -2.3926336251    0.6957645867    2.6620296082
H       -1.9403749786   -0.7239353190    1.6899452972
H       -1.5822083366    0.9226953379    1.1171557143
H       -1.3365742159    0.5627175559    4.5208020008
H        0.4151695884    0.6776002369    4.6331514532
H       -0.3535386504   -0.9195345901    4.4753388648
H        4.2408070257   -1.3601055900   -1.0195342685
H        6.2259794039   -2.4223321814   -1.2225221100
29   
Generated by ForceBalance from scan.xyz: Frame 17 of 24
C        1.9457690914   -0.9288915719   -0.0003055203
C        3.1368189815   -0.8776208771    2.0843171764
C        0.7902740960   -0.4776536867    0.6380312172
C        1.9832148572   -0.4509908125    2.7368363708
C        3.1318410293   -1.1300082277    0.7099761642
C        0.7802338038   -0.2212909415    2.0279248579
C        4.8153755323   -2.8437410947    0.1903919525
C        6.5797717259   -4.3832150283   -0.5193507811
C       -1.6367223361    0.1639792044    1.9702803213
C       -0.4138186154    0.1900623070    4.1266170375
N        4.3307074140   -1.5381948546    0.0442689369
N        5.8199289587   -3.1521727664   -0.7208778665
N       -0.3646677401    0.2545937805    2.6725152716
O        4.4068617312   -3.6339057251    1.0327477759
H        1.9146134886   -1.1384434678   -1.0677333395
H        4.0501535063   -1.0381422962    2.6490485418
H       -0.1048328107   -0.3394999391    0.0437413104
H        2.0310059274   -0.2876287925    3.8066423485
H        7.2379395302   -4.3359096684    0.3580258756
H        7.1797775115   -4.5770527380   -1.4123712698
H        5.8823304419   -5.2088494775   -0.3751375018
H       -2.4272247243    0.5617479714    2.6091276671
H       -1.9013927421   -0.8692947427    1.6933690618
H       -1.6222416403    0.7696319913    1.0582837041
H       -1.3739200149    0.5800021066    4.4692590497
H        0.3668561252    0.8156513717    4.5711271568
H       -0.2967053158   -0.8345197068    4.5144532474
H        4.4406307487   -1.1513919581   -0.8864115390
H        6.3572281801   -2.3611625323   -1.0559144252
29   
Generated by ForceBalance from scan.xyz: Frame 18 of 24
C        2.0029933291   -0.9902778026    0.0681879808
C        3.1766890923   -0.7536232599    2.1488865125
C        0.8228419082   -0.5637168167    0.6749864200
C        2.0009434403   -0.3426815365    2.7732196338
C        3.1943422465   -1.0842374494    0.7926260285
C        0.7928071869   -0.2202502832    2.0470847801
C        4.7794724022   -2.8394903058    0.1392769257
C        6.4800714453   -4.4164878788   -0.6405893117
C       -1.6412170280    0.0382293076    1.9588320744
C       -0.4312149865    0.2688774214    4.1113062165
N        4.4200939290   -1.4880863754    0.1662734354
N        5.8561013341   -3.0975239432   -0.7040165887
N       -0.3780595801    0.2344515629    2.6562899269
O        4.2105846372   -3.7097710640    0.7873506682
H        1.9916080436   -1.2690584011   -0.9831973349
H        4.0953133815   -0.8347596092    2.7230635657
H       -0.0764905351   -0.5121478883    0.0733064506
H        2.0338072529   -0.1123578611    3.8311768728
H        7.0284041076   -4.5817895125    0.2960360339
H        7.1658340098   -4.5228662726   -1.4853758302
H        5.7037456136   -5.1784413478   -0.7165323285
H       -2.4525514848    0.4382522627    2.5694543307
H       -1.8548041948   -1.0221002689    1.7493426637
H       -1.6511544005    0.5837821714    1.0097344291
H       -1.4107209731    0.6344159329    4.4245034340
H        0.3161908512    0.9609826750    4.5122214010
H       -0.2666872477   -0.7194856706    4.5692318671
H        4.6620576305   -0.9681661575   -0.6699949844
H        6.4947506141   -2.3221873338   -0.8366173592
29   
Generated by ForceBalance from scan.xyz: Frame 19 of 24
C        2.0644411295   -1.0875515632    0.1428682331
C        3.2135731472   -0.6583041309    2.2067338455
C        0.8641870416   -0.6740970005    0.7155022379
C        2.0196479210   -0.2447173956    2.7957485244
C        3.2550125218   -1.0765016595    0.8757936554
C        0.8123715803   -0.2289410312    2.0585197288
C        4.7660202519   -2.8385634046    0.0714893150
C        6.4322283781   -4.4172103060   -0.7757241839
C       -1.6298525391   -0.0746166770    1.9400764698
C       -0.4434256558    0.3653824148    4.0756066660
N        4.5003052505   -1.4869947573    0.2914761633
N        5.9211279850   -3.0526872417   -0.6769057556
N       -0.3800365537    0.2163465180    2.6285129129
O        4.0575584441   -3.7492615273    0.4853113753
H        2.0737624395   -1.4430874123   -0.8843836481
H        4.1300096177   -0.6690785292    2.7905675217
H       -0.0345613966   -0.7102921305    0.1118318856
H        2.0359292580    0.0616071144    3.8346659802
H        6.8405548188   -4.7878788657    0.1735897308
H        7.2121265884   -4.4466197729   -1.5414283642
H        5.6180839225   -5.0784457547   -1.0739815970
H       -2.4601386765    0.3337038846    2.5188029212
H       -1.8010521044   -1.1539672985    1.8019755130
H       -1.6537528871    0.4047932953    0.9561243221
H       -1.4403424389    0.7093838140    4.3563681804
H        0.2697285973    1.1207064020    4.4213999749
H       -0.2370450753   -0.5745340095    4.6117245844
H        4.9041087466   -0.8461172717   -0.3822896835
H        6.6284495222   -2.3322256469   -0.5915367893
29   
Generated by ForceBalance from scan.xyz: Frame 20 of 24
C        2.0444577179   -1.2048339878    0.2095376293
C        3.2337804060   -0.5445169258    2.1906278302
C        0.8458438353   -0.8131302561    0.8003813979
C        2.0407552358   -0.1244973243    2.7793459265
C        3.2565480189   -1.0687242817    0.8944912674
C        0.8108053381   -0.2413802944    2.0937573871
C        4.7290722618   -2.7754270375   -0.1242807957
C        6.4619499959   -4.4177768376   -0.6762636469
C       -1.6381909399   -0.2416856824    2.0628895825
C       -0.4105253987    0.4629332155    4.0952392809
N        4.4883655092   -1.4701930595    0.3001412409
N        6.0680058874   -3.0478613379   -0.3663871103
N       -0.3874973461    0.2011812260    2.6635087320
O        3.8379218792   -3.5923979491   -0.3375883084
H        2.0419629129   -1.6417104061   -0.7828149440
H        4.1598709700   -0.4643162249    2.7570594943
H       -0.0684072506   -0.9522976845    0.2362265231
H        2.0785454375    0.2793719168    3.7838257973
H        6.4109337399   -5.0811904371    0.1969231027
H        7.4834332285   -4.4115536579   -1.0658201160
H        5.7927481314   -4.8127760297   -1.4412621697
H       -2.4733147499    0.1742535304    2.6294488047
H       -1.7417722734   -1.3386092931    2.0460809842
H       -1.7285084995    0.1262165569    1.0359486458
H       -1.4115881514    0.7890590421    4.3832369785
H        0.2799415970    1.2721857842    4.3540812997
H       -0.1465954595   -0.4210752460    4.6984536149
H        5.2922801584   -0.9161919378    0.5679437556
H        6.7538266879   -2.4865537212    0.1222136398
29   
Generated by ForceBalance from scan.xyz: Frame 21 of 24
C        2.0578664810   -1.3284249007    0.3146489776
C        3.2219082141   -0.5128166358    2.2542588668
C        0.8518737755   -0.9036643179    0.8678514971
C        2.0199336290   -0.0642130360    2.8013693366
C        3.2629304914   -1.1342756222    1.0011551893
C        0.7978417822   -0.2411110385    2.1156669977
C        4.7585852780   -2.7681626755   -0.1415934880
C        6.4938472984   -4.3553009362   -0.8179283674
C       -1.6500424938   -0.2671010589    2.0622466219
C       -0.4505035146    0.5821017910    4.0533629754
N        4.5137186174   -1.5408288067    0.4621282897
N        6.1112656839   -3.0351488236   -0.3257214560
N       -0.4104957701    0.2327612816    2.6407591164
O        3.8756120771   -3.5238739832   -0.5387969034
H        2.0657465880   -1.8350908911   -0.6426081273
H        4.1417321741   -0.3778382095    2.8208946503
H       -0.0551255905   -1.0898516681    0.3054111506
H        2.0463014447    0.4125170887    3.7738014969
H        6.3299010882   -5.1485420112   -0.0771293787
H        7.5505588177   -4.3330556158   -1.0971378427
H        5.8987776546   -4.5891341347   -1.7012176245
H       -2.4953401232    0.1851947412    2.5843035824
H       -1.7453833614   -1.3630182966    2.1301883025
H       -1.7302919054    0.0185155804    1.0087956320
H       -1.4559187692    0.9213734273    4.3095498486
H        0.2338460521    1.4088185077    4.2693754716
H       -0.1902230710   -0.2617899369    4.7133102168
H        5.3161240432   -1.0188484974    0.7897813899
H        6.7516216497   -2.6146611492    0.3364540863
29   
Generated by ForceBalance from scan.xyz: Frame 22 of 24
C        2.0564023117   -1.4508981442    0.4138948804
C        3.2055656144   -0.5016153451    2.3013213397
C        0.8474681600   -0.9885007521    0.9316392124
C        1.9996762995   -0.0220998762    2.8102470587
C        3.2578438569   -1.2101222811    1.0940504283
C        0.7815080144   -0.2453670768    2.1313393736
C        4.7754146359   -2.7648844875   -0.1554520992
C        6.5147171820   -4.2899710881   -0.9496809413
C       -1.6656585812   -0.2840248907    2.0678244068
C       -0.4812822216    0.6972733497    4.0041624740
N        4.5210231333   -1.6407935435    0.6139742116
N        6.1334866939   -3.0492019761   -0.2803512752
N       -0.4316234264    0.2610513645    2.6163235905
O        3.9085015760   -3.4220173487   -0.7274132131
H        2.0700050446   -2.0188554150   -0.5071696028
H        4.1211233653   -0.3222591514    2.8630212776
H       -0.0546750968   -1.2121677460    0.3749447491
H        2.0206719367    0.5193565068    3.7483186556
H        6.2554294269   -5.1836073642   -0.3674788395
H        7.5929749790   -4.2739145455   -1.1288917172
H        5.9975364659   -4.3488857023   -1.9078253913
H       -2.5159113922    0.1996096708    2.5525067547
H       -1.7566752048   -1.3731531792    2.2114704030
H       -1.7412704178   -0.0730738403    0.9966231111
H       -1.4887293519    1.0504651404    4.2321885422
H        0.2006106303    1.5369264385    4.1727708076
H       -0.2244038146   -0.1034157064    4.7174016546
H        5.3193603151   -1.1570061133    1.0033724885
H        6.7203174593   -2.7833844625    0.5011990522
29   
Generated by ForceBalance from scan.xyz: Frame 23 of 24
C        2.6728444303   -0.4994906413    0.7546307177
C        2.2708420992   -2.2073984072    2.3993298150
C        1.5482446667    0.1859926078    1.2135641383
C        1.1547493797   -1.5159508412    2.8658705042
C        3.0530527495   -1.7121304449    1.3467593597
C        0.7658139422   -0.2865080909    2.2898515711
C        4.9191090624   -2.3412760077   -0.2193603292
C        6.6297753910   -3.3889834480   -1.6178585466
C       -0.8746815053    1.4959180574    1.9363213875
C       -1.2856101422   -0.2622984177    3.6247048188
N        4.1820052850   -2.4677654082    0.9448302138
N        5.8961383209   -3.3267553761   -0.3563351656
N       -0.3321749653    0.4369082007    2.7757697113
O        4.7774452733   -1.4363131900   -1.0394222219
H        3.2501185289   -0.1052009432   -0.0707894043
H        2.5302863002   -3.1572284493    2.8649286908
H        1.2913793833    1.1132041221    0.7153536291
H        0.5890052436   -1.9508359136    3.6810181047
H        6.0026697315   -3.7126464160   -2.4585861082
H        7.4669957897   -4.0821609200   -1.5015719220
H        7.0208153866   -2.3978810553   -1.8496491430
H       -1.7266083413    1.9525760328    2.4437696285
H       -1.2098747268    1.1350426854    0.9500256207
H       -0.1324753661    2.2843223805    1.7774566259
H       -2.0837886820    0.4262520788    3.9085518690
H       -0.8078635108   -0.6007141261    4.5497107022
H       -1.7410473697   -1.1376089504    3.1323376090
H        4.4682144702   -3.1896897382    1.5927646928
H        5.6806542714   -4.2254617606    0.0584774346
29   
Generated by ForceBalance from scan.xyz: Frame 24 of 24
C        2.5863621868   -0.5888298532    0.6585022548
C        2.2466565936   -2.2301738519    2.3824878997
C        1.4941252057    0.1281906305    1.1470940830
C        1.1587074650   -1.5107801786    2.8721685519
C        2.9821213564   -1.7844189177    1.2752089195
C        0.7564999190   -0.2967167725    2.2733151126
C        4.9291469204   -2.3519322619   -0.2187619200
C        6.7330390384   -3.3166533237   -1.5591499145
C       -0.8792281306    1.4923089538    1.9334919786
C       -1.2271696123   -0.1998159017    3.7032006277
N        4.0674372315   -2.5831518816    0.8391976103
N        5.8839444952   -3.3569798179   -0.3712526229
N       -0.3094362984    0.4569822180    2.7841883300
O        4.8984838650   -1.3582434955   -0.9419240320
H        3.1332676005   -0.2255817044   -0.2008519562
H        2.5201171111   -3.1632364922    2.8735972345
H        1.2267689407    1.0423515235    0.6305480194
H        0.6280298619   -1.9096337796    3.7282739124
H        6.1802691317   -3.5276127616   -2.4837805956
H        7.5352657188   -4.0496645203   -1.4407151489
H        7.1724606447   -2.3226588993   -1.6469597097
H       -1.7022733697    1.9763797742    2.4627022057
H       -1.2631235170    1.1012719428    0.9768359024
H       -0.1372131936    2.2659933085    1.7129721433
H       -2.0037389924    0.5077335361    3.9999244859
H       -0.7082541534   -0.5101926534    4.6158241980
H       -1.7148190345   -1.0870920153    3.2660295742
H        4.3055210600   -3.3479236468    1.4570372112
H        5.5990859973   -4.2845593325   -0.0802369283
